                                  MODFLOW-NWT-SWR1 
      U.S. GEOLOGICAL SURVEY MODULAR FINITE-DIFFERENCE GROUNDWATER-FLOW MODEL
                             VERSION 1.1.4 4/01/2018
                    BASED ON MODFLOW-2005 VERSION 1.12.00 02/03/2017

 LIST FILE: CrnkNic.list
                         UNIT    2

 OPENING CrnkNic.oc
 FILE TYPE:OC   UNIT   14   STATUS:OLD    
 FORMAT:FORMATTED              ACCESS:SEQUENTIAL          

 OPENING CrnkNic.nwt
 FILE TYPE:NWT   UNIT   32   STATUS:OLD    
 FORMAT:FORMATTED              ACCESS:SEQUENTIAL          

 OPENING CrnkNic.dis
 FILE TYPE:DIS   UNIT   11   STATUS:OLD    
 FORMAT:FORMATTED              ACCESS:SEQUENTIAL          

 OPENING CrnkNic.upw
 FILE TYPE:UPW   UNIT   31   STATUS:OLD    
 FORMAT:FORMATTED              ACCESS:SEQUENTIAL          

 OPENING CrnkNic.bas
 FILE TYPE:BAS6   UNIT   13   STATUS:OLD    
 FORMAT:FORMATTED              ACCESS:SEQUENTIAL          

 OPENING CrnkNic.sfr
 FILE TYPE:SFR   UNIT   17   STATUS:OLD    
 FORMAT:FORMATTED              ACCESS:SEQUENTIAL          

 OPENING CrnkNic.gage
 FILE TYPE:GAGE   UNIT  120   STATUS:OLD    
 FORMAT:FORMATTED              ACCESS:SEQUENTIAL          

 OPENING CrnkNic.lmt6
 FILE TYPE:LMT6   UNIT   30   STATUS:OLD    
 FORMAT:FORMATTED              ACCESS:SEQUENTIAL          

 OPENING CrnkNic.hds
 FILE TYPE:DATA(BINARY)   UNIT   51   STATUS:REPLACE
 FORMAT:UNFORMATTED            ACCESS:STREAM              

 OPENING CrnkNic.cbc
 FILE TYPE:DATA(BINARY)   UNIT   53   STATUS:REPLACE
 FORMAT:UNFORMATTED            ACCESS:STREAM              

 OPENING CrnkNic.gag1
 FILE TYPE:DATA   UNIT   61   STATUS:UNKNOWN
 FORMAT:FORMATTED              ACCESS:SEQUENTIAL          

 OPENING CrnkNic.gag2
 FILE TYPE:DATA   UNIT   62   STATUS:UNKNOWN
 FORMAT:FORMATTED              ACCESS:SEQUENTIAL          

 OPENING CrnkNic.gag3
 FILE TYPE:DATA   UNIT   63   STATUS:UNKNOWN
 FORMAT:FORMATTED              ACCESS:SEQUENTIAL          

 OPENING CrnkNic.gag4
 FILE TYPE:DATA   UNIT   64   STATUS:UNKNOWN
 FORMAT:FORMATTED              ACCESS:SEQUENTIAL          

 OPENING CrnkNic.gag5
 FILE TYPE:DATA   UNIT   65   STATUS:UNKNOWN
 FORMAT:FORMATTED              ACCESS:SEQUENTIAL          

 OPENING CrnkNic.gag6
 FILE TYPE:DATA   UNIT   66   STATUS:UNKNOWN
 FORMAT:FORMATTED              ACCESS:SEQUENTIAL          

 BAS -- BASIC PACKAGE, VERSION 1.1.4, 4/01/2018 INPUT READ FROM UNIT   13

 MODFLOW was compiled using mixed precision
 Precision of REAL variables:           6
 Precision of DOUBLE PRECISION variables:          15

 DISCRETIZATION INPUT DATA READ FROM UNIT   11
 # DIS package for  MODFLOW-NWT, generated by Flopy.
    1 LAYERS         3 ROWS       650 COLUMNS
    3 STRESS PERIOD(S) IN SIMULATION
 MODEL TIME UNIT IS SECONDS
 MODEL LENGTH UNIT IS METERS
  Confining bed flag for each layer:
   0

                     DELR =   1.00000    

                     DELC =   5.00000    



           TOP ELEVATION OF LAYER 1
 READING ON UNIT   11 WITH FORMAT: (650E15.6)          



             MODEL LAYER BOTTOM EL. FOR LAYER   1
 READING ON UNIT   11 WITH FORMAT: (650E15.6)          


 STRESS PERIOD     LENGTH       TIME STEPS     MULTIPLIER FOR DELT    SS FLAG
 ----------------------------------------------------------------------------
        1         30600.00          1                    1.000         TR
        2         10800.00          1                    1.000         TR
        3         45000.00          1                    1.000         TR

 TRANSIENT SIMULATION




 # BAS6 package for  MODFLOW-NWT, generated by Flopy.                            
 THE FREE FORMAT OPTION HAS BEEN SELECTED



                     BOUNDARY ARRAY FOR LAYER   1
 READING ON UNIT   13 WITH FORMAT: (650I10)            

 AQUIFER HEAD WILL BE SET TO  -888.00     AT ALL NO-FLOW NODES (IBOUND=0).



                       INITIAL HEAD FOR LAYER   1
 READING ON UNIT   13 WITH FORMAT: (650E15.6)          
 # OC package for  MODFLOW-NWT, generated by Flopy.

 OUTPUT CONTROL IS SPECIFIED ONLY AT TIME STEPS FOR WHICH OUTPUT IS DESIRED
 COMPACT CELL-BY-CELL BUDGET FILES WILL BE WRITTEN
 AUXILIARY DATA WILL BE SAVED IN CELL-BY-CELL BUDGET FILES
 HEAD PRINT FORMAT CODE IS   0    DRAWDOWN PRINT FORMAT CODE IS   0
 HEADS WILL BE SAVED ON UNIT   51    DRAWDOWNS WILL BE SAVED ON UNIT    0
 # NWT package for  MODFLOW-NWT, generated by Flopy.

 NWT1 -- Newton Solver, VERSION 1.1.4, 4/01/2018
         INPUT READ FROM UNIT 32

 SIMPLE OPTION:
 DEFAULT SOLVER INPUT VALUES REFLECT NEARLY LINEAR MODEL
 ***XMD linear solver will be used***

   CONVERGENCE CRITERION OF   0.100000E-03 FOR HEAD SOLUTION
   AND A TOLERANCE OF   0.500000E+01 FOR FLOW SOLUTION AND 
   A MAXIMUM OF  5000 OUTER ITERATIONS. 


   D-B-D REDUCTION FACTOR OF    0.970000E+00 AND 
   A D-B-D INCREASE FACTOR OF    0.100000E-03 AND 
   A D-B-D RELAXATION OF    0.000000E+00 AND 
   A MOMENTUM FACTOR OF    0.000000E+00 .


 ***BACKTRACKING IS INACTIVE***
 XMD -- LINEAR SOLUTION BY XMD PACKAGE VERSION 1.30
     BY MOTOMU IBARAKI, OHIO STATE UNIVERSITY, COLOMBUS, OH
                 INPUT READ FROM UNIT 32
 ACCELERATION METHOD                    (IACL) =         1
 NODE ORDERING FLAG                   (NORDER) =         0
 LEVEL OF FILL                         (LEVEL) =         1
 MAXIMUM NUMBER OF ORTHOGONALIZATIONS  (NORTH) =         5
 INDEX FOR USING REDUCED SYSTEM      (IREDSYS) =         1
 RESID. REDUCTION CONVERGE CRITERION  (RRCTOL) =  0.000000E+00
 INDEX FOR USING DROP TOLERANCE     (IDROPTOL) =         1
 DROP TOLERANCE VALUE                  (EPSRN) =  0.500000E-02
 CONVERGENCE CRITERIA OF           (HCLOSEXMD) =  0.100000E-02
 MAX. NUMBER OF LINEAR ITERATIONS  (MXITERXMD) =        50


 UPW1 -- UPSTREAM WEIGHTING FLOW PACKAGE, VERSION 1.1.4, 4/01/2018
         INPUT READ FROM UNIT 31

 # UPW package for  MODFLOW-NWT, generated by Flopy.
 CELL-BY-CELL FLOWS WILL BE SAVED ON UNIT   53
 No named parameters

   LAYER FLAGS:
 LAYER       LAYTYP          LAYAVG    CHANI           LAYVKA           LAYWET
 ---------------------------------------------------------------------------
    1             1             2     1.000E+00             1             0

   INTERPRETATION OF LAYER FLAGS:
                        INTERBLOCK     HORIZONTAL    DATA IN
         LAYER TYPE   TRANSMISSIVITY   ANISOTROPY   ARRAY VKA   WETTABILITY
 LAYER   (LAYTYP)        (LAYAVG)      (CHANI)     (LAYVKA)       (LAYWET)
 ---------------------------------------------------------------------------
    1   CONVERTIBLE     LOG-ARITH     1.000E+00    ANISOTROPY  NON-WETTABLE

    HYD. COND. ALONG ROWS =  0.100000     FOR LAYER   1

  HORIZ. TO VERTICAL ANI. =   1.00000     FOR LAYER   1

         SPECIFIC STORAGE =  1.000000E-06 FOR LAYER   1

           SPECIFIC YIELD =  0.200000     FOR LAYER   1

 SFR7 -- STREAMFLOW ROUTING PACKAGE, VERSION 1.0.5, 2012-04-05
         INPUT READ FROM UNIT  17
 # SFR package for  MODFLOW-NWT, generated by Flopy.
 No named parameters
  Some stream information will be read by reach. This option replaces NSTRM<0


 NUMBER OF STREAM REACHES IS  650

 NUMBER OF STREAM SEGMENTS IS    6

 NUMBER OF STREAM PARAMETERS IS    0

 NUMBER OF STREAM SEGMENTS DEFINED USING PARAMETERS IS              0

 MAXIMUM ERROR FOR STREAM LEAKAGE RATES IS  1.00E-04

 CONSTANT FOR MANNINGS EQUATION IS  1.0000E+00





 USING DATA INPUT MODIFIED FROM ORIGINAL SFR PROGRAM FOR FARM PACKAGE



   STREAM NETWORK DESCRIPTION: 

   LAYER    ROW    COL   SEGMENT   REACH     LENGTH     STREAMBED     STREAMBED   STREAMBED     STREAMBED
                          NUMBER   NUMBER    IN CELL    TOP ELEV.       SLOPE     THICKNESS   HYDR. CONDUCT.        
   ---------------------------------------------------------------------------------------------------------
       1      2      1       1        1    1.0000E+00   9.8750E+01   1.0000E-04   5.0000E-01   1.0000E-10
       1      2      2       1        2    1.0000E+00   9.8750E+01   1.0000E-04   5.0000E-01   1.0000E-10
       1      2      3       1        3    1.0000E+00   9.8750E+01   1.0000E-04   5.0000E-01   1.0000E-10
       1      2      4       1        4    1.0000E+00   9.8750E+01   1.0000E-04   5.0000E-01   1.0000E-10
       1      2      5       1        5    1.0000E+00   9.8750E+01   1.0000E-04   5.0000E-01   1.0000E-10
       1      2      6       1        6    1.0000E+00   9.8749E+01   1.0000E-04   5.0000E-01   1.0000E-10
       1      2      7       1        7    1.0000E+00   9.8749E+01   1.0000E-04   5.0000E-01   1.0000E-10
       1      2      8       1        8    1.0000E+00   9.8749E+01   1.0000E-04   5.0000E-01   1.0000E-10
       1      2      9       1        9    1.0000E+00   9.8749E+01   1.0000E-04   5.0000E-01   1.0000E-10
       1      2     10       1       10    1.0000E+00   9.8749E+01   1.0000E-04   5.0000E-01   1.0000E-10
       1      2     11       1       11    1.0000E+00   9.8749E+01   1.0000E-04   5.0000E-01   1.0000E-10
       1      2     12       1       12    1.0000E+00   9.8749E+01   1.0000E-04   5.0000E-01   1.0000E-10
       1      2     13       1       13    1.0000E+00   9.8749E+01   1.0000E-04   5.0000E-01   1.0000E-10
       1      2     14       1       14    1.0000E+00   9.8749E+01   1.0000E-04   5.0000E-01   1.0000E-10
       1      2     15       1       15    1.0000E+00   9.8749E+01   1.0000E-04   5.0000E-01   1.0000E-10
       1      2     16       1       16    1.0000E+00   9.8748E+01   1.0000E-04   5.0000E-01   1.0000E-10
       1      2     17       1       17    1.0000E+00   9.8748E+01   1.0000E-04   5.0000E-01   1.0000E-10
       1      2     18       1       18    1.0000E+00   9.8748E+01   1.0000E-04   5.0000E-01   1.0000E-10
       1      2     19       1       19    1.0000E+00   9.8748E+01   1.0000E-04   5.0000E-01   1.0000E-10
       1      2     20       1       20    1.0000E+00   9.8748E+01   1.0000E-04   5.0000E-01   1.0000E-10
       1      2     21       1       21    1.0000E+00   9.8748E+01   1.0000E-04   5.0000E-01   1.0000E-10
       1      2     22       1       22    1.0000E+00   9.8748E+01   1.0000E-04   5.0000E-01   1.0000E-10
       1      2     23       1       23    1.0000E+00   9.8748E+01   1.0000E-04   5.0000E-01   1.0000E-10
       1      2     24       1       24    1.0000E+00   9.8748E+01   1.0000E-04   5.0000E-01   1.0000E-10
       1      2     25       1       25    1.0000E+00   9.8748E+01   1.0000E-04   5.0000E-01   1.0000E-10
       1      2     26       1       26    1.0000E+00   9.8747E+01   1.0000E-04   5.0000E-01   1.0000E-10
       1      2     27       1       27    1.0000E+00   9.8747E+01   1.0000E-04   5.0000E-01   1.0000E-10
       1      2     28       1       28    1.0000E+00   9.8747E+01   1.0000E-04   5.0000E-01   1.0000E-10
       1      2     29       1       29    1.0000E+00   9.8747E+01   1.0000E-04   5.0000E-01   1.0000E-10
       1      2     30       1       30    1.0000E+00   9.8747E+01   1.0000E-04   5.0000E-01   1.0000E-10
       1      2     31       1       31    1.0000E+00   9.8747E+01   1.0000E-04   5.0000E-01   1.0000E-10
       1      2     32       1       32    1.0000E+00   9.8747E+01   1.0000E-04   5.0000E-01   1.0000E-10
       1      2     33       1       33    1.0000E+00   9.8747E+01   1.0000E-04   5.0000E-01   1.0000E-10
       1      2     34       1       34    1.0000E+00   9.8747E+01   1.0000E-04   5.0000E-01   1.0000E-10
       1      2     35       1       35    1.0000E+00   9.8747E+01   1.0000E-04   5.0000E-01   1.0000E-10
       1      2     36       1       36    1.0000E+00   9.8746E+01   1.0000E-04   5.0000E-01   1.0000E-10
       1      2     37       1       37    1.0000E+00   9.8746E+01   1.0000E-04   5.0000E-01   1.0000E-10
       1      2     38       1       38    1.0000E+00   9.8746E+01   1.0000E-04   5.0000E-01   1.0000E-10
       1      2     39       2        1    1.0000E+00   9.8746E+01   1.0000E-04   5.0000E-01   1.0000E-10
       1      2     40       2        2    1.0000E+00   9.8746E+01   1.0000E-04   5.0000E-01   1.0000E-10
       1      2     41       2        3    1.0000E+00   9.8746E+01   1.0000E-04   5.0000E-01   1.0000E-10
       1      2     42       2        4    1.0000E+00   9.8746E+01   1.0000E-04   5.0000E-01   1.0000E-10
       1      2     43       2        5    1.0000E+00   9.8746E+01   1.0000E-04   5.0000E-01   1.0000E-10
       1      2     44       2        6    1.0000E+00   9.8746E+01   1.0000E-04   5.0000E-01   1.0000E-10
       1      2     45       2        7    1.0000E+00   9.8746E+01   1.0000E-04   5.0000E-01   1.0000E-10
       1      2     46       2        8    1.0000E+00   9.8745E+01   1.0000E-04   5.0000E-01   1.0000E-10
       1      2     47       2        9    1.0000E+00   9.8745E+01   1.0000E-04   5.0000E-01   1.0000E-10
       1      2     48       2       10    1.0000E+00   9.8745E+01   1.0000E-04   5.0000E-01   1.0000E-10
       1      2     49       2       11    1.0000E+00   9.8745E+01   1.0000E-04   5.0000E-01   1.0000E-10
       1      2     50       2       12    1.0000E+00   9.8745E+01   1.0000E-04   5.0000E-01   1.0000E-10
       1      2     51       2       13    1.0000E+00   9.8745E+01   1.0000E-04   5.0000E-01   1.0000E-10
       1      2     52       2       14    1.0000E+00   9.8745E+01   1.0000E-04   5.0000E-01   1.0000E-10
       1      2     53       2       15    1.0000E+00   9.8745E+01   1.0000E-04   5.0000E-01   1.0000E-10
       1      2     54       2       16    1.0000E+00   9.8745E+01   1.0000E-04   5.0000E-01   1.0000E-10
       1      2     55       2       17    1.0000E+00   9.8745E+01   1.0000E-04   5.0000E-01   1.0000E-10
       1      2     56       2       18    1.0000E+00   9.8744E+01   1.0000E-04   5.0000E-01   1.0000E-10
       1      2     57       2       19    1.0000E+00   9.8744E+01   1.0000E-04   5.0000E-01   1.0000E-10
       1      2     58       2       20    1.0000E+00   9.8744E+01   1.0000E-04   5.0000E-01   1.0000E-10
       1      2     59       2       21    1.0000E+00   9.8744E+01   1.0000E-04   5.0000E-01   1.0000E-10
       1      2     60       2       22    1.0000E+00   9.8744E+01   1.0000E-04   5.0000E-01   1.0000E-10
       1      2     61       2       23    1.0000E+00   9.8744E+01   1.0000E-04   5.0000E-01   1.0000E-10
       1      2     62       2       24    1.0000E+00   9.8744E+01   1.0000E-04   5.0000E-01   1.0000E-10
       1      2     63       2       25    1.0000E+00   9.8744E+01   1.0000E-04   5.0000E-01   1.0000E-10
       1      2     64       2       26    1.0000E+00   9.8744E+01   1.0000E-04   5.0000E-01   1.0000E-10
       1      2     65       2       27    1.0000E+00   9.8744E+01   1.0000E-04   5.0000E-01   1.0000E-10
       1      2     66       2       28    1.0000E+00   9.8743E+01   1.0000E-04   5.0000E-01   1.0000E-10
       1      2     67       2       29    1.0000E+00   9.8743E+01   1.0000E-04   5.0000E-01   1.0000E-10
       1      2     68       2       30    1.0000E+00   9.8743E+01   1.0000E-04   5.0000E-01   1.0000E-10
       1      2     69       2       31    1.0000E+00   9.8743E+01   1.0000E-04   5.0000E-01   1.0000E-10
       1      2     70       2       32    1.0000E+00   9.8743E+01   1.0000E-04   5.0000E-01   1.0000E-10
       1      2     71       2       33    1.0000E+00   9.8743E+01   1.0000E-04   5.0000E-01   1.0000E-10
       1      2     72       2       34    1.0000E+00   9.8743E+01   1.0000E-04   5.0000E-01   1.0000E-10
       1      2     73       2       35    1.0000E+00   9.8743E+01   1.0000E-04   5.0000E-01   1.0000E-10
       1      2     74       2       36    1.0000E+00   9.8743E+01   1.0000E-04   5.0000E-01   1.0000E-10
       1      2     75       2       37    1.0000E+00   9.8743E+01   1.0000E-04   5.0000E-01   1.0000E-10
       1      2     76       2       38    1.0000E+00   9.8743E+01   1.0000E-04   5.0000E-01   1.0000E-10
       1      2     77       2       39    1.0000E+00   9.8742E+01   1.0000E-04   5.0000E-01   1.0000E-10
       1      2     78       2       40    1.0000E+00   9.8742E+01   1.0000E-04   5.0000E-01   1.0000E-10
       1      2     79       2       41    1.0000E+00   9.8742E+01   1.0000E-04   5.0000E-01   1.0000E-10
       1      2     80       2       42    1.0000E+00   9.8742E+01   1.0000E-04   5.0000E-01   1.0000E-10
       1      2     81       2       43    1.0000E+00   9.8742E+01   1.0000E-04   5.0000E-01   1.0000E-10
       1      2     82       2       44    1.0000E+00   9.8742E+01   1.0000E-04   5.0000E-01   1.0000E-10
       1      2     83       2       45    1.0000E+00   9.8742E+01   1.0000E-04   5.0000E-01   1.0000E-10
       1      2     84       2       46    1.0000E+00   9.8742E+01   1.0000E-04   5.0000E-01   1.0000E-10
       1      2     85       2       47    1.0000E+00   9.8742E+01   1.0000E-04   5.0000E-01   1.0000E-10
       1      2     86       2       48    1.0000E+00   9.8742E+01   1.0000E-04   5.0000E-01   1.0000E-10
       1      2     87       2       49    1.0000E+00   9.8741E+01   1.0000E-04   5.0000E-01   1.0000E-10
       1      2     88       2       50    1.0000E+00   9.8741E+01   1.0000E-04   5.0000E-01   1.0000E-10
       1      2     89       2       51    1.0000E+00   9.8741E+01   1.0000E-04   5.0000E-01   1.0000E-10
       1      2     90       2       52    1.0000E+00   9.8741E+01   1.0000E-04   5.0000E-01   1.0000E-10
       1      2     91       2       53    1.0000E+00   9.8741E+01   1.0000E-04   5.0000E-01   1.0000E-10
       1      2     92       2       54    1.0000E+00   9.8741E+01   1.0000E-04   5.0000E-01   1.0000E-10
       1      2     93       2       55    1.0000E+00   9.8741E+01   1.0000E-04   5.0000E-01   1.0000E-10
       1      2     94       2       56    1.0000E+00   9.8741E+01   1.0000E-04   5.0000E-01   1.0000E-10
       1      2     95       2       57    1.0000E+00   9.8741E+01   1.0000E-04   5.0000E-01   1.0000E-10
       1      2     96       2       58    1.0000E+00   9.8741E+01   1.0000E-04   5.0000E-01   1.0000E-10
       1      2     97       2       59    1.0000E+00   9.8740E+01   1.0000E-04   5.0000E-01   1.0000E-10
       1      2     98       2       60    1.0000E+00   9.8740E+01   1.0000E-04   5.0000E-01   1.0000E-10
       1      2     99       2       61    1.0000E+00   9.8740E+01   1.0000E-04   5.0000E-01   1.0000E-10
       1      2    100       2       62    1.0000E+00   9.8740E+01   1.0000E-04   5.0000E-01   1.0000E-10
       1      2    101       2       63    1.0000E+00   9.8740E+01   1.0000E-04   5.0000E-01   1.0000E-10
       1      2    102       2       64    1.0000E+00   9.8740E+01   1.0000E-04   5.0000E-01   1.0000E-10
       1      2    103       2       65    1.0000E+00   9.8740E+01   1.0000E-04   5.0000E-01   1.0000E-10
       1      2    104       2       66    1.0000E+00   9.8740E+01   1.0000E-04   5.0000E-01   1.0000E-10
       1      2    105       2       67    1.0000E+00   9.8740E+01   1.0000E-04   5.0000E-01   1.0000E-10
       1      2    106       3        1    1.0000E+00   9.8740E+01   1.0000E-04   5.0000E-01   2.9462E-06
       1      2    107       3        2    1.0000E+00   9.8739E+01   1.0000E-04   5.0000E-01   2.9462E-06
       1      2    108       3        3    1.0000E+00   9.8739E+01   1.0000E-04   5.0000E-01   2.9462E-06
       1      2    109       3        4    1.0000E+00   9.8739E+01   1.0000E-04   5.0000E-01   2.9462E-06
       1      2    110       3        5    1.0000E+00   9.8739E+01   1.0000E-04   5.0000E-01   2.9462E-06
       1      2    111       3        6    1.0000E+00   9.8739E+01   1.0000E-04   5.0000E-01   2.9462E-06
       1      2    112       3        7    1.0000E+00   9.8739E+01   1.0000E-04   5.0000E-01   2.9462E-06
       1      2    113       3        8    1.0000E+00   9.8739E+01   1.0000E-04   5.0000E-01   2.9462E-06
       1      2    114       3        9    1.0000E+00   9.8739E+01   1.0000E-04   5.0000E-01   2.9462E-06
       1      2    115       3       10    1.0000E+00   9.8739E+01   1.0000E-04   5.0000E-01   2.9462E-06
       1      2    116       3       11    1.0000E+00   9.8739E+01   1.0000E-04   5.0000E-01   2.9462E-06
       1      2    117       3       12    1.0000E+00   9.8738E+01   1.0000E-04   5.0000E-01   2.9462E-06
       1      2    118       3       13    1.0000E+00   9.8738E+01   1.0000E-04   5.0000E-01   2.9462E-06
       1      2    119       3       14    1.0000E+00   9.8738E+01   1.0000E-04   5.0000E-01   2.9462E-06
       1      2    120       3       15    1.0000E+00   9.8738E+01   1.0000E-04   5.0000E-01   2.9462E-06
       1      2    121       3       16    1.0000E+00   9.8738E+01   1.0000E-04   5.0000E-01   2.9462E-06
       1      2    122       3       17    1.0000E+00   9.8738E+01   1.0000E-04   5.0000E-01   2.9462E-06
       1      2    123       3       18    1.0000E+00   9.8738E+01   1.0000E-04   5.0000E-01   2.9462E-06
       1      2    124       3       19    1.0000E+00   9.8738E+01   1.0000E-04   5.0000E-01   2.9462E-06
       1      2    125       3       20    1.0000E+00   9.8738E+01   1.0000E-04   5.0000E-01   2.9462E-06
       1      2    126       3       21    1.0000E+00   9.8738E+01   1.0000E-04   5.0000E-01   2.9462E-06
       1      2    127       3       22    1.0000E+00   9.8737E+01   1.0000E-04   5.0000E-01   2.9462E-06
       1      2    128       3       23    1.0000E+00   9.8737E+01   1.0000E-04   5.0000E-01   2.9462E-06
       1      2    129       3       24    1.0000E+00   9.8737E+01   1.0000E-04   5.0000E-01   2.9462E-06
       1      2    130       3       25    1.0000E+00   9.8737E+01   1.0000E-04   5.0000E-01   2.9462E-06
       1      2    131       3       26    1.0000E+00   9.8737E+01   1.0000E-04   5.0000E-01   2.9462E-06
       1      2    132       3       27    1.0000E+00   9.8737E+01   1.0000E-04   5.0000E-01   2.9462E-06
       1      2    133       3       28    1.0000E+00   9.8737E+01   1.0000E-04   5.0000E-01   2.9462E-06
       1      2    134       3       29    1.0000E+00   9.8737E+01   1.0000E-04   5.0000E-01   2.9462E-06
       1      2    135       3       30    1.0000E+00   9.8737E+01   1.0000E-04   5.0000E-01   2.9462E-06
       1      2    136       3       31    1.0000E+00   9.8737E+01   1.0000E-04   5.0000E-01   2.9462E-06
       1      2    137       3       32    1.0000E+00   9.8736E+01   1.0000E-04   5.0000E-01   2.9462E-06
       1      2    138       3       33    1.0000E+00   9.8736E+01   1.0000E-04   5.0000E-01   2.9462E-06
       1      2    139       3       34    1.0000E+00   9.8736E+01   1.0000E-04   5.0000E-01   2.9462E-06
       1      2    140       3       35    1.0000E+00   9.8736E+01   1.0000E-04   5.0000E-01   2.9462E-06
       1      2    141       3       36    1.0000E+00   9.8736E+01   1.0000E-04   5.0000E-01   2.9462E-06
       1      2    142       3       37    1.0000E+00   9.8736E+01   1.0000E-04   5.0000E-01   2.9462E-06
       1      2    143       3       38    1.0000E+00   9.8736E+01   1.0000E-04   5.0000E-01   2.9462E-06
       1      2    144       3       39    1.0000E+00   9.8736E+01   1.0000E-04   5.0000E-01   2.9462E-06
       1      2    145       3       40    1.0000E+00   9.8736E+01   1.0000E-04   5.0000E-01   2.9462E-06
       1      2    146       3       41    1.0000E+00   9.8735E+01   1.0000E-04   5.0000E-01   2.9462E-06
       1      2    147       3       42    1.0000E+00   9.8735E+01   1.0000E-04   5.0000E-01   2.9462E-06
       1      2    148       3       43    1.0000E+00   9.8735E+01   1.0000E-04   5.0000E-01   2.9462E-06
       1      2    149       3       44    1.0000E+00   9.8735E+01   1.0000E-04   5.0000E-01   2.9462E-06
       1      2    150       3       45    1.0000E+00   9.8735E+01   1.0000E-04   5.0000E-01   2.9462E-06
       1      2    151       3       46    1.0000E+00   9.8735E+01   1.0000E-04   5.0000E-01   2.9462E-06
       1      2    152       3       47    1.0000E+00   9.8735E+01   1.0000E-04   5.0000E-01   2.9462E-06
       1      2    153       3       48    1.0000E+00   9.8735E+01   1.0000E-04   5.0000E-01   2.9462E-06
       1      2    154       3       49    1.0000E+00   9.8735E+01   1.0000E-04   5.0000E-01   2.9462E-06
       1      2    155       3       50    1.0000E+00   9.8735E+01   1.0000E-04   5.0000E-01   2.9462E-06
       1      2    156       3       51    1.0000E+00   9.8734E+01   1.0000E-04   5.0000E-01   2.9462E-06
       1      2    157       3       52    1.0000E+00   9.8734E+01   1.0000E-04   5.0000E-01   2.9462E-06
       1      2    158       3       53    1.0000E+00   9.8734E+01   1.0000E-04   5.0000E-01   2.9462E-06
       1      2    159       3       54    1.0000E+00   9.8734E+01   1.0000E-04   5.0000E-01   2.9462E-06
       1      2    160       3       55    1.0000E+00   9.8734E+01   1.0000E-04   5.0000E-01   2.9462E-06
       1      2    161       3       56    1.0000E+00   9.8734E+01   1.0000E-04   5.0000E-01   2.9462E-06
       1      2    162       3       57    1.0000E+00   9.8734E+01   1.0000E-04   5.0000E-01   2.9462E-06
       1      2    163       3       58    1.0000E+00   9.8734E+01   1.0000E-04   5.0000E-01   2.9462E-06
       1      2    164       3       59    1.0000E+00   9.8734E+01   1.0000E-04   5.0000E-01   2.9462E-06
       1      2    165       3       60    1.0000E+00   9.8734E+01   1.0000E-04   5.0000E-01   2.9462E-06
       1      2    166       3       61    1.0000E+00   9.8733E+01   1.0000E-04   5.0000E-01   2.9462E-06
       1      2    167       3       62    1.0000E+00   9.8733E+01   1.0000E-04   5.0000E-01   2.9462E-06
       1      2    168       3       63    1.0000E+00   9.8733E+01   1.0000E-04   5.0000E-01   2.9462E-06
       1      2    169       3       64    1.0000E+00   9.8733E+01   1.0000E-04   5.0000E-01   2.9462E-06
       1      2    170       3       65    1.0000E+00   9.8733E+01   1.0000E-04   5.0000E-01   2.9462E-06
       1      2    171       3       66    1.0000E+00   9.8733E+01   1.0000E-04   5.0000E-01   2.9462E-06
       1      2    172       3       67    1.0000E+00   9.8733E+01   1.0000E-04   5.0000E-01   2.9462E-06
       1      2    173       3       68    1.0000E+00   9.8733E+01   1.0000E-04   5.0000E-01   2.9462E-06
       1      2    174       3       69    1.0000E+00   9.8733E+01   1.0000E-04   5.0000E-01   2.9462E-06
       1      2    175       3       70    1.0000E+00   9.8733E+01   1.0000E-04   5.0000E-01   2.9462E-06
       1      2    176       3       71    1.0000E+00   9.8732E+01   1.0000E-04   5.0000E-01   2.9462E-06
       1      2    177       3       72    1.0000E+00   9.8732E+01   1.0000E-04   5.0000E-01   2.9462E-06
       1      2    178       3       73    1.0000E+00   9.8732E+01   1.0000E-04   5.0000E-01   2.9462E-06
       1      2    179       3       74    1.0000E+00   9.8732E+01   1.0000E-04   5.0000E-01   2.9462E-06
       1      2    180       3       75    1.0000E+00   9.8732E+01   1.0000E-04   5.0000E-01   2.9462E-06
       1      2    181       3       76    1.0000E+00   9.8732E+01   1.0000E-04   5.0000E-01   2.9462E-06
       1      2    182       3       77    1.0000E+00   9.8732E+01   1.0000E-04   5.0000E-01   2.9462E-06
       1      2    183       3       78    1.0000E+00   9.8732E+01   1.0000E-04   5.0000E-01   2.9462E-06
       1      2    184       3       79    1.0000E+00   9.8732E+01   1.0000E-04   5.0000E-01   2.9462E-06
       1      2    185       3       80    1.0000E+00   9.8732E+01   1.0000E-04   5.0000E-01   2.9462E-06
       1      2    186       3       81    1.0000E+00   9.8731E+01   1.0000E-04   5.0000E-01   2.9462E-06
       1      2    187       3       82    1.0000E+00   9.8731E+01   1.0000E-04   5.0000E-01   2.9462E-06
       1      2    188       3       83    1.0000E+00   9.8731E+01   1.0000E-04   5.0000E-01   2.9462E-06
       1      2    189       3       84    1.0000E+00   9.8731E+01   1.0000E-04   5.0000E-01   2.9462E-06
       1      2    190       3       85    1.0000E+00   9.8731E+01   1.0000E-04   5.0000E-01   2.9462E-06
       1      2    191       3       86    1.0000E+00   9.8731E+01   1.0000E-04   5.0000E-01   2.9462E-06
       1      2    192       3       87    1.0000E+00   9.8731E+01   1.0000E-04   5.0000E-01   2.9462E-06
       1      2    193       3       88    1.0000E+00   9.8731E+01   1.0000E-04   5.0000E-01   2.9462E-06
       1      2    194       3       89    1.0000E+00   9.8731E+01   1.0000E-04   5.0000E-01   2.9462E-06
       1      2    195       3       90    1.0000E+00   9.8731E+01   1.0000E-04   5.0000E-01   2.9462E-06
       1      2    196       3       91    1.0000E+00   9.8730E+01   1.0000E-04   5.0000E-01   2.9462E-06
       1      2    197       3       92    1.0000E+00   9.8730E+01   1.0000E-04   5.0000E-01   2.9462E-06
       1      2    198       3       93    1.0000E+00   9.8730E+01   1.0000E-04   5.0000E-01   2.9462E-06
       1      2    199       3       94    1.0000E+00   9.8730E+01   1.0000E-04   5.0000E-01   2.9462E-06
       1      2    200       3       95    1.0000E+00   9.8730E+01   1.0000E-04   5.0000E-01   2.9462E-06
       1      2    201       3       96    1.0000E+00   9.8730E+01   1.0000E-04   5.0000E-01   2.9462E-06
       1      2    202       3       97    1.0000E+00   9.8730E+01   1.0000E-04   5.0000E-01   2.9462E-06
       1      2    203       3       98    1.0000E+00   9.8730E+01   1.0000E-04   5.0000E-01   2.9462E-06
       1      2    204       3       99    1.0000E+00   9.8730E+01   1.0000E-04   5.0000E-01   2.9462E-06
       1      2    205       3      100    1.0000E+00   9.8730E+01   1.0000E-04   5.0000E-01   2.9462E-06
       1      2    206       3      101    1.0000E+00   9.8729E+01   1.0000E-04   5.0000E-01   2.9462E-06
       1      2    207       3      102    1.0000E+00   9.8729E+01   1.0000E-04   5.0000E-01   2.9462E-06
       1      2    208       3      103    1.0000E+00   9.8729E+01   1.0000E-04   5.0000E-01   2.9462E-06
       1      2    209       3      104    1.0000E+00   9.8729E+01   1.0000E-04   5.0000E-01   2.9462E-06
       1      2    210       3      105    1.0000E+00   9.8729E+01   1.0000E-04   5.0000E-01   2.9462E-06
       1      2    211       3      106    1.0000E+00   9.8729E+01   1.0000E-04   5.0000E-01   2.9462E-06
       1      2    212       3      107    1.0000E+00   9.8729E+01   1.0000E-04   5.0000E-01   2.9462E-06
       1      2    213       3      108    1.0000E+00   9.8729E+01   1.0000E-04   5.0000E-01   2.9462E-06
       1      2    214       3      109    1.0000E+00   9.8729E+01   1.0000E-04   5.0000E-01   2.9462E-06
       1      2    215       3      110    1.0000E+00   9.8729E+01   1.0000E-04   5.0000E-01   2.9462E-06
       1      2    216       3      111    1.0000E+00   9.8729E+01   1.0000E-04   5.0000E-01   2.9462E-06
       1      2    217       3      112    1.0000E+00   9.8728E+01   1.0000E-04   5.0000E-01   2.9462E-06
       1      2    218       3      113    1.0000E+00   9.8728E+01   1.0000E-04   5.0000E-01   2.9462E-06
       1      2    219       3      114    1.0000E+00   9.8728E+01   1.0000E-04   5.0000E-01   2.9462E-06
       1      2    220       3      115    1.0000E+00   9.8728E+01   1.0000E-04   5.0000E-01   2.9462E-06
       1      2    221       3      116    1.0000E+00   9.8728E+01   1.0000E-04   5.0000E-01   2.9462E-06
       1      2    222       3      117    1.0000E+00   9.8728E+01   1.0000E-04   5.0000E-01   2.9462E-06
       1      2    223       3      118    1.0000E+00   9.8728E+01   1.0000E-04   5.0000E-01   2.9462E-06
       1      2    224       3      119    1.0000E+00   9.8728E+01   1.0000E-04   5.0000E-01   2.9462E-06
       1      2    225       3      120    1.0000E+00   9.8728E+01   1.0000E-04   5.0000E-01   2.9462E-06
       1      2    226       3      121    1.0000E+00   9.8728E+01   1.0000E-04   5.0000E-01   2.9462E-06
       1      2    227       3      122    1.0000E+00   9.8727E+01   1.0000E-04   5.0000E-01   2.9462E-06
       1      2    228       3      123    1.0000E+00   9.8727E+01   1.0000E-04   5.0000E-01   2.9462E-06
       1      2    229       3      124    1.0000E+00   9.8727E+01   1.0000E-04   5.0000E-01   2.9462E-06
       1      2    230       3      125    1.0000E+00   9.8727E+01   1.0000E-04   5.0000E-01   2.9462E-06
       1      2    231       3      126    1.0000E+00   9.8727E+01   1.0000E-04   5.0000E-01   2.9462E-06
       1      2    232       3      127    1.0000E+00   9.8727E+01   1.0000E-04   5.0000E-01   2.9462E-06
       1      2    233       3      128    1.0000E+00   9.8727E+01   1.0000E-04   5.0000E-01   2.9462E-06
       1      2    234       3      129    1.0000E+00   9.8727E+01   1.0000E-04   5.0000E-01   2.9462E-06
       1      2    235       3      130    1.0000E+00   9.8727E+01   1.0000E-04   5.0000E-01   2.9462E-06
       1      2    236       3      131    1.0000E+00   9.8727E+01   1.0000E-04   5.0000E-01   2.9462E-06
       1      2    237       3      132    1.0000E+00   9.8726E+01   1.0000E-04   5.0000E-01   2.9462E-06
       1      2    238       3      133    1.0000E+00   9.8726E+01   1.0000E-04   5.0000E-01   2.9462E-06
       1      2    239       3      134    1.0000E+00   9.8726E+01   1.0000E-04   5.0000E-01   2.9462E-06
       1      2    240       3      135    1.0000E+00   9.8726E+01   1.0000E-04   5.0000E-01   2.9462E-06
       1      2    241       3      136    1.0000E+00   9.8726E+01   1.0000E-04   5.0000E-01   2.9462E-06
       1      2    242       3      137    1.0000E+00   9.8726E+01   1.0000E-04   5.0000E-01   2.9462E-06
       1      2    243       3      138    1.0000E+00   9.8726E+01   1.0000E-04   5.0000E-01   2.9462E-06
       1      2    244       3      139    1.0000E+00   9.8726E+01   1.0000E-04   5.0000E-01   2.9462E-06
       1      2    245       3      140    1.0000E+00   9.8726E+01   1.0000E-04   5.0000E-01   2.9462E-06
       1      2    246       3      141    1.0000E+00   9.8726E+01   1.0000E-04   5.0000E-01   2.9462E-06
       1      2    247       3      142    1.0000E+00   9.8725E+01   1.0000E-04   5.0000E-01   2.9462E-06
       1      2    248       3      143    1.0000E+00   9.8725E+01   1.0000E-04   5.0000E-01   2.9462E-06
       1      2    249       3      144    1.0000E+00   9.8725E+01   1.0000E-04   5.0000E-01   2.9462E-06
       1      2    250       3      145    1.0000E+00   9.8725E+01   1.0000E-04   5.0000E-01   2.9462E-06
       1      2    251       3      146    1.0000E+00   9.8725E+01   1.0000E-04   5.0000E-01   2.9462E-06
       1      2    252       3      147    1.0000E+00   9.8725E+01   1.0000E-04   5.0000E-01   2.9462E-06
       1      2    253       3      148    1.0000E+00   9.8725E+01   1.0000E-04   5.0000E-01   2.9462E-06
       1      2    254       3      149    1.0000E+00   9.8725E+01   1.0000E-04   5.0000E-01   2.9462E-06
       1      2    255       3      150    1.0000E+00   9.8725E+01   1.0000E-04   5.0000E-01   2.9462E-06
       1      2    256       3      151    1.0000E+00   9.8725E+01   1.0000E-04   5.0000E-01   2.9462E-06
       1      2    257       3      152    1.0000E+00   9.8724E+01   1.0000E-04   5.0000E-01   2.9462E-06
       1      2    258       3      153    1.0000E+00   9.8724E+01   1.0000E-04   5.0000E-01   2.9462E-06
       1      2    259       3      154    1.0000E+00   9.8724E+01   1.0000E-04   5.0000E-01   2.9462E-06
       1      2    260       3      155    1.0000E+00   9.8724E+01   1.0000E-04   5.0000E-01   2.9462E-06
       1      2    261       3      156    1.0000E+00   9.8724E+01   1.0000E-04   5.0000E-01   2.9462E-06
       1      2    262       3      157    1.0000E+00   9.8724E+01   1.0000E-04   5.0000E-01   2.9462E-06
       1      2    263       3      158    1.0000E+00   9.8724E+01   1.0000E-04   5.0000E-01   2.9462E-06
       1      2    264       3      159    1.0000E+00   9.8724E+01   1.0000E-04   5.0000E-01   2.9462E-06
       1      2    265       3      160    1.0000E+00   9.8724E+01   1.0000E-04   5.0000E-01   2.9462E-06
       1      2    266       3      161    1.0000E+00   9.8724E+01   1.0000E-04   5.0000E-01   2.9462E-06
       1      2    267       3      162    1.0000E+00   9.8723E+01   1.0000E-04   5.0000E-01   2.9462E-06
       1      2    268       3      163    1.0000E+00   9.8723E+01   1.0000E-04   5.0000E-01   2.9462E-06
       1      2    269       3      164    1.0000E+00   9.8723E+01   1.0000E-04   5.0000E-01   2.9462E-06
       1      2    270       3      165    1.0000E+00   9.8723E+01   1.0000E-04   5.0000E-01   2.9462E-06
       1      2    271       3      166    1.0000E+00   9.8723E+01   1.0000E-04   5.0000E-01   2.9462E-06
       1      2    272       3      167    1.0000E+00   9.8723E+01   1.0000E-04   5.0000E-01   2.9462E-06
       1      2    273       3      168    1.0000E+00   9.8723E+01   1.0000E-04   5.0000E-01   2.9462E-06
       1      2    274       3      169    1.0000E+00   9.8723E+01   1.0000E-04   5.0000E-01   2.9462E-06
       1      2    275       3      170    1.0000E+00   9.8723E+01   1.0000E-04   5.0000E-01   2.9462E-06
       1      2    276       3      171    1.0000E+00   9.8723E+01   1.0000E-04   5.0000E-01   2.9462E-06
       1      2    277       3      172    1.0000E+00   9.8722E+01   1.0000E-04   5.0000E-01   2.9462E-06
       1      2    278       3      173    1.0000E+00   9.8722E+01   1.0000E-04   5.0000E-01   2.9462E-06
       1      2    279       3      174    1.0000E+00   9.8722E+01   1.0000E-04   5.0000E-01   2.9462E-06
       1      2    280       3      175    1.0000E+00   9.8722E+01   1.0000E-04   5.0000E-01   2.9462E-06
       1      2    281       3      176    1.0000E+00   9.8722E+01   1.0000E-04   5.0000E-01   2.9462E-06
       1      2    282       4        1    1.0000E+00   9.8722E+01   1.0000E-04   5.0000E-01   1.3751E-06
       1      2    283       4        2    1.0000E+00   9.8722E+01   1.0000E-04   5.0000E-01   1.3751E-06
       1      2    284       4        3    1.0000E+00   9.8722E+01   1.0000E-04   5.0000E-01   1.3751E-06
       1      2    285       4        4    1.0000E+00   9.8722E+01   1.0000E-04   5.0000E-01   1.3751E-06
       1      2    286       4        5    1.0000E+00   9.8721E+01   1.0000E-04   5.0000E-01   1.3751E-06
       1      2    287       4        6    1.0000E+00   9.8721E+01   1.0000E-04   5.0000E-01   1.3751E-06
       1      2    288       4        7    1.0000E+00   9.8721E+01   1.0000E-04   5.0000E-01   1.3751E-06
       1      2    289       4        8    1.0000E+00   9.8721E+01   1.0000E-04   5.0000E-01   1.3751E-06
       1      2    290       4        9    1.0000E+00   9.8721E+01   1.0000E-04   5.0000E-01   1.3751E-06
       1      2    291       4       10    1.0000E+00   9.8721E+01   1.0000E-04   5.0000E-01   1.3751E-06
       1      2    292       4       11    1.0000E+00   9.8721E+01   1.0000E-04   5.0000E-01   1.3751E-06
       1      2    293       4       12    1.0000E+00   9.8721E+01   1.0000E-04   5.0000E-01   1.3751E-06
       1      2    294       4       13    1.0000E+00   9.8721E+01   1.0000E-04   5.0000E-01   1.3751E-06
       1      2    295       4       14    1.0000E+00   9.8721E+01   1.0000E-04   5.0000E-01   1.3751E-06
       1      2    296       4       15    1.0000E+00   9.8720E+01   1.0000E-04   5.0000E-01   1.3751E-06
       1      2    297       4       16    1.0000E+00   9.8720E+01   1.0000E-04   5.0000E-01   1.3751E-06
       1      2    298       4       17    1.0000E+00   9.8720E+01   1.0000E-04   5.0000E-01   1.3751E-06
       1      2    299       4       18    1.0000E+00   9.8720E+01   1.0000E-04   5.0000E-01   1.3751E-06
       1      2    300       4       19    1.0000E+00   9.8720E+01   1.0000E-04   5.0000E-01   1.3751E-06
       1      2    301       4       20    1.0000E+00   9.8720E+01   1.0000E-04   5.0000E-01   1.3751E-06
       1      2    302       4       21    1.0000E+00   9.8720E+01   1.0000E-04   5.0000E-01   1.3751E-06
       1      2    303       4       22    1.0000E+00   9.8720E+01   1.0000E-04   5.0000E-01   1.3751E-06
       1      2    304       4       23    1.0000E+00   9.8720E+01   1.0000E-04   5.0000E-01   1.3751E-06
       1      2    305       4       24    1.0000E+00   9.8720E+01   1.0000E-04   5.0000E-01   1.3751E-06
       1      2    306       4       25    1.0000E+00   9.8719E+01   1.0000E-04   5.0000E-01   1.3751E-06
       1      2    307       4       26    1.0000E+00   9.8719E+01   1.0000E-04   5.0000E-01   1.3751E-06
       1      2    308       4       27    1.0000E+00   9.8719E+01   1.0000E-04   5.0000E-01   1.3751E-06
       1      2    309       4       28    1.0000E+00   9.8719E+01   1.0000E-04   5.0000E-01   1.3751E-06
       1      2    310       4       29    1.0000E+00   9.8719E+01   1.0000E-04   5.0000E-01   1.3751E-06
       1      2    311       4       30    1.0000E+00   9.8719E+01   1.0000E-04   5.0000E-01   1.3751E-06
       1      2    312       4       31    1.0000E+00   9.8719E+01   1.0000E-04   5.0000E-01   1.3751E-06
       1      2    313       4       32    1.0000E+00   9.8719E+01   1.0000E-04   5.0000E-01   1.3751E-06
       1      2    314       4       33    1.0000E+00   9.8719E+01   1.0000E-04   5.0000E-01   1.3751E-06
       1      2    315       4       34    1.0000E+00   9.8719E+01   1.0000E-04   5.0000E-01   1.3751E-06
       1      2    316       4       35    1.0000E+00   9.8718E+01   1.0000E-04   5.0000E-01   1.3751E-06
       1      2    317       4       36    1.0000E+00   9.8718E+01   1.0000E-04   5.0000E-01   1.3751E-06
       1      2    318       4       37    1.0000E+00   9.8718E+01   1.0000E-04   5.0000E-01   1.3751E-06
       1      2    319       4       38    1.0000E+00   9.8718E+01   1.0000E-04   5.0000E-01   1.3751E-06
       1      2    320       4       39    1.0000E+00   9.8718E+01   1.0000E-04   5.0000E-01   1.3751E-06
       1      2    321       4       40    1.0000E+00   9.8718E+01   1.0000E-04   5.0000E-01   1.3751E-06
       1      2    322       4       41    1.0000E+00   9.8718E+01   1.0000E-04   5.0000E-01   1.3751E-06
       1      2    323       4       42    1.0000E+00   9.8718E+01   1.0000E-04   5.0000E-01   1.3751E-06
       1      2    324       4       43    1.0000E+00   9.8718E+01   1.0000E-04   5.0000E-01   1.3751E-06
       1      2    325       4       44    1.0000E+00   9.8718E+01   1.0000E-04   5.0000E-01   1.3751E-06
       1      2    326       4       45    1.0000E+00   9.8717E+01   1.0000E-04   5.0000E-01   1.3751E-06
       1      2    327       4       46    1.0000E+00   9.8717E+01   1.0000E-04   5.0000E-01   1.3751E-06
       1      2    328       4       47    1.0000E+00   9.8717E+01   1.0000E-04   5.0000E-01   1.3751E-06
       1      2    329       4       48    1.0000E+00   9.8717E+01   1.0000E-04   5.0000E-01   1.3751E-06
       1      2    330       4       49    1.0000E+00   9.8717E+01   1.0000E-04   5.0000E-01   1.3751E-06
       1      2    331       4       50    1.0000E+00   9.8717E+01   1.0000E-04   5.0000E-01   1.3751E-06
       1      2    332       4       51    1.0000E+00   9.8717E+01   1.0000E-04   5.0000E-01   1.3751E-06
       1      2    333       4       52    1.0000E+00   9.8717E+01   1.0000E-04   5.0000E-01   1.3751E-06
       1      2    334       4       53    1.0000E+00   9.8717E+01   1.0000E-04   5.0000E-01   1.3751E-06
       1      2    335       4       54    1.0000E+00   9.8717E+01   1.0000E-04   5.0000E-01   1.3751E-06
       1      2    336       4       55    1.0000E+00   9.8716E+01   1.0000E-04   5.0000E-01   1.3751E-06
       1      2    337       4       56    1.0000E+00   9.8716E+01   1.0000E-04   5.0000E-01   1.3751E-06
       1      2    338       4       57    1.0000E+00   9.8716E+01   1.0000E-04   5.0000E-01   1.3751E-06
       1      2    339       4       58    1.0000E+00   9.8716E+01   1.0000E-04   5.0000E-01   1.3751E-06
       1      2    340       4       59    1.0000E+00   9.8716E+01   1.0000E-04   5.0000E-01   1.3751E-06
       1      2    341       4       60    1.0000E+00   9.8716E+01   1.0000E-04   5.0000E-01   1.3751E-06
       1      2    342       4       61    1.0000E+00   9.8716E+01   1.0000E-04   5.0000E-01   1.3751E-06
       1      2    343       4       62    1.0000E+00   9.8716E+01   1.0000E-04   5.0000E-01   1.3751E-06
       1      2    344       4       63    1.0000E+00   9.8716E+01   1.0000E-04   5.0000E-01   1.3751E-06
       1      2    345       4       64    1.0000E+00   9.8716E+01   1.0000E-04   5.0000E-01   1.3751E-06
       1      2    346       4       65    1.0000E+00   9.8715E+01   1.0000E-04   5.0000E-01   1.3751E-06
       1      2    347       4       66    1.0000E+00   9.8715E+01   1.0000E-04   5.0000E-01   1.3751E-06
       1      2    348       4       67    1.0000E+00   9.8715E+01   1.0000E-04   5.0000E-01   1.3751E-06
       1      2    349       4       68    1.0000E+00   9.8715E+01   1.0000E-04   5.0000E-01   1.3751E-06
       1      2    350       4       69    1.0000E+00   9.8715E+01   1.0000E-04   5.0000E-01   1.3751E-06
       1      2    351       4       70    1.0000E+00   9.8715E+01   1.0000E-04   5.0000E-01   1.3751E-06
       1      2    352       4       71    1.0000E+00   9.8715E+01   1.0000E-04   5.0000E-01   1.3751E-06
       1      2    353       4       72    1.0000E+00   9.8715E+01   1.0000E-04   5.0000E-01   1.3751E-06
       1      2    354       4       73    1.0000E+00   9.8715E+01   1.0000E-04   5.0000E-01   1.3751E-06
       1      2    355       4       74    1.0000E+00   9.8715E+01   1.0000E-04   5.0000E-01   1.3751E-06
       1      2    356       4       75    1.0000E+00   9.8715E+01   1.0000E-04   5.0000E-01   1.3751E-06
       1      2    357       4       76    1.0000E+00   9.8714E+01   1.0000E-04   5.0000E-01   1.3751E-06
       1      2    358       4       77    1.0000E+00   9.8714E+01   1.0000E-04   5.0000E-01   1.3751E-06
       1      2    359       4       78    1.0000E+00   9.8714E+01   1.0000E-04   5.0000E-01   1.3751E-06
       1      2    360       4       79    1.0000E+00   9.8714E+01   1.0000E-04   5.0000E-01   1.3751E-06
       1      2    361       4       80    1.0000E+00   9.8714E+01   1.0000E-04   5.0000E-01   1.3751E-06
       1      2    362       4       81    1.0000E+00   9.8714E+01   1.0000E-04   5.0000E-01   1.3751E-06
       1      2    363       4       82    1.0000E+00   9.8714E+01   1.0000E-04   5.0000E-01   1.3751E-06
       1      2    364       4       83    1.0000E+00   9.8714E+01   1.0000E-04   5.0000E-01   1.3751E-06
       1      2    365       4       84    1.0000E+00   9.8714E+01   1.0000E-04   5.0000E-01   1.3751E-06
       1      2    366       4       85    1.0000E+00   9.8714E+01   1.0000E-04   5.0000E-01   1.3751E-06
       1      2    367       4       86    1.0000E+00   9.8713E+01   1.0000E-04   5.0000E-01   1.3751E-06
       1      2    368       4       87    1.0000E+00   9.8713E+01   1.0000E-04   5.0000E-01   1.3751E-06
       1      2    369       4       88    1.0000E+00   9.8713E+01   1.0000E-04   5.0000E-01   1.3751E-06
       1      2    370       4       89    1.0000E+00   9.8713E+01   1.0000E-04   5.0000E-01   1.3751E-06
       1      2    371       4       90    1.0000E+00   9.8713E+01   1.0000E-04   5.0000E-01   1.3751E-06
       1      2    372       4       91    1.0000E+00   9.8713E+01   1.0000E-04   5.0000E-01   1.3751E-06
       1      2    373       4       92    1.0000E+00   9.8713E+01   1.0000E-04   5.0000E-01   1.3751E-06
       1      2    374       4       93    1.0000E+00   9.8713E+01   1.0000E-04   5.0000E-01   1.3751E-06
       1      2    375       4       94    1.0000E+00   9.8713E+01   1.0000E-04   5.0000E-01   1.3751E-06
       1      2    376       4       95    1.0000E+00   9.8713E+01   1.0000E-04   5.0000E-01   1.3751E-06
       1      2    377       4       96    1.0000E+00   9.8712E+01   1.0000E-04   5.0000E-01   1.3751E-06
       1      2    378       4       97    1.0000E+00   9.8712E+01   1.0000E-04   5.0000E-01   1.3751E-06
       1      2    379       4       98    1.0000E+00   9.8712E+01   1.0000E-04   5.0000E-01   1.3751E-06
       1      2    380       4       99    1.0000E+00   9.8712E+01   1.0000E-04   5.0000E-01   1.3751E-06
       1      2    381       4      100    1.0000E+00   9.8712E+01   1.0000E-04   5.0000E-01   1.3751E-06
       1      2    382       4      101    1.0000E+00   9.8712E+01   1.0000E-04   5.0000E-01   1.3751E-06
       1      2    383       4      102    1.0000E+00   9.8712E+01   1.0000E-04   5.0000E-01   1.3751E-06
       1      2    384       4      103    1.0000E+00   9.8712E+01   1.0000E-04   5.0000E-01   1.3751E-06
       1      2    385       4      104    1.0000E+00   9.8712E+01   1.0000E-04   5.0000E-01   1.3751E-06
       1      2    386       4      105    1.0000E+00   9.8712E+01   1.0000E-04   5.0000E-01   1.3751E-06
       1      2    387       4      106    1.0000E+00   9.8711E+01   1.0000E-04   5.0000E-01   1.3751E-06
       1      2    388       4      107    1.0000E+00   9.8711E+01   1.0000E-04   5.0000E-01   1.3751E-06
       1      2    389       4      108    1.0000E+00   9.8711E+01   1.0000E-04   5.0000E-01   1.3751E-06
       1      2    390       4      109    1.0000E+00   9.8711E+01   1.0000E-04   5.0000E-01   1.3751E-06
       1      2    391       4      110    1.0000E+00   9.8711E+01   1.0000E-04   5.0000E-01   1.3751E-06
       1      2    392       4      111    1.0000E+00   9.8711E+01   1.0000E-04   5.0000E-01   1.3751E-06
       1      2    393       4      112    1.0000E+00   9.8711E+01   1.0000E-04   5.0000E-01   1.3751E-06
       1      2    394       4      113    1.0000E+00   9.8711E+01   1.0000E-04   5.0000E-01   1.3751E-06
       1      2    395       4      114    1.0000E+00   9.8711E+01   1.0000E-04   5.0000E-01   1.3751E-06
       1      2    396       4      115    1.0000E+00   9.8711E+01   1.0000E-04   5.0000E-01   1.3751E-06
       1      2    397       4      116    1.0000E+00   9.8710E+01   1.0000E-04   5.0000E-01   1.3751E-06
       1      2    398       4      117    1.0000E+00   9.8710E+01   1.0000E-04   5.0000E-01   1.3751E-06
       1      2    399       4      118    1.0000E+00   9.8710E+01   1.0000E-04   5.0000E-01   1.3751E-06
       1      2    400       4      119    1.0000E+00   9.8710E+01   1.0000E-04   5.0000E-01   1.3751E-06
       1      2    401       4      120    1.0000E+00   9.8710E+01   1.0000E-04   5.0000E-01   1.3751E-06
       1      2    402       4      121    1.0000E+00   9.8710E+01   1.0000E-04   5.0000E-01   1.3751E-06
       1      2    403       4      122    1.0000E+00   9.8710E+01   1.0000E-04   5.0000E-01   1.3751E-06
       1      2    404       4      123    1.0000E+00   9.8710E+01   1.0000E-04   5.0000E-01   1.3751E-06
       1      2    405       4      124    1.0000E+00   9.8710E+01   1.0000E-04   5.0000E-01   1.3751E-06
       1      2    406       4      125    1.0000E+00   9.8710E+01   1.0000E-04   5.0000E-01   1.3751E-06
       1      2    407       4      126    1.0000E+00   9.8709E+01   1.0000E-04   5.0000E-01   1.3751E-06
       1      2    408       4      127    1.0000E+00   9.8709E+01   1.0000E-04   5.0000E-01   1.3751E-06
       1      2    409       4      128    1.0000E+00   9.8709E+01   1.0000E-04   5.0000E-01   1.3751E-06
       1      2    410       4      129    1.0000E+00   9.8709E+01   1.0000E-04   5.0000E-01   1.3751E-06
       1      2    411       4      130    1.0000E+00   9.8709E+01   1.0000E-04   5.0000E-01   1.3751E-06
       1      2    412       4      131    1.0000E+00   9.8709E+01   1.0000E-04   5.0000E-01   1.3751E-06
       1      2    413       4      132    1.0000E+00   9.8709E+01   1.0000E-04   5.0000E-01   1.3751E-06
       1      2    414       4      133    1.0000E+00   9.8709E+01   1.0000E-04   5.0000E-01   1.3751E-06
       1      2    415       4      134    1.0000E+00   9.8709E+01   1.0000E-04   5.0000E-01   1.3751E-06
       1      2    416       4      135    1.0000E+00   9.8709E+01   1.0000E-04   5.0000E-01   1.3751E-06
       1      2    417       4      136    1.0000E+00   9.8708E+01   1.0000E-04   5.0000E-01   1.3751E-06
       1      2    418       4      137    1.0000E+00   9.8708E+01   1.0000E-04   5.0000E-01   1.3751E-06
       1      2    419       4      138    1.0000E+00   9.8708E+01   1.0000E-04   5.0000E-01   1.3751E-06
       1      2    420       4      139    1.0000E+00   9.8708E+01   1.0000E-04   5.0000E-01   1.3751E-06
       1      2    421       4      140    1.0000E+00   9.8708E+01   1.0000E-04   5.0000E-01   1.3751E-06
       1      2    422       4      141    1.0000E+00   9.8708E+01   1.0000E-04   5.0000E-01   1.3751E-06
       1      2    423       4      142    1.0000E+00   9.8708E+01   1.0000E-04   5.0000E-01   1.3751E-06
       1      2    424       4      143    1.0000E+00   9.8708E+01   1.0000E-04   5.0000E-01   1.3751E-06
       1      2    425       4      144    1.0000E+00   9.8708E+01   1.0000E-04   5.0000E-01   1.3751E-06
       1      2    426       4      145    1.0000E+00   9.8707E+01   1.0000E-04   5.0000E-01   1.3751E-06
       1      2    427       4      146    1.0000E+00   9.8707E+01   1.0000E-04   5.0000E-01   1.3751E-06
       1      2    428       4      147    1.0000E+00   9.8707E+01   1.0000E-04   5.0000E-01   1.3751E-06
       1      2    429       4      148    1.0000E+00   9.8707E+01   1.0000E-04   5.0000E-01   1.3751E-06
       1      2    430       4      149    1.0000E+00   9.8707E+01   1.0000E-04   5.0000E-01   1.3751E-06
       1      2    431       4      150    1.0000E+00   9.8707E+01   1.0000E-04   5.0000E-01   1.3751E-06
       1      2    432       4      151    1.0000E+00   9.8707E+01   1.0000E-04   5.0000E-01   1.3751E-06
       1      2    433       4      152    1.0000E+00   9.8707E+01   1.0000E-04   5.0000E-01   1.3751E-06
       1      2    434       5        1    1.0000E+00   9.8707E+01   1.0000E-04   5.0000E-01   1.7647E-06
       1      2    435       5        2    1.0000E+00   9.8707E+01   1.0000E-04   5.0000E-01   1.7647E-06
       1      2    436       5        3    1.0000E+00   9.8706E+01   1.0000E-04   5.0000E-01   1.7647E-06
       1      2    437       5        4    1.0000E+00   9.8706E+01   1.0000E-04   5.0000E-01   1.7647E-06
       1      2    438       5        5    1.0000E+00   9.8706E+01   1.0000E-04   5.0000E-01   1.7647E-06
       1      2    439       5        6    1.0000E+00   9.8706E+01   1.0000E-04   5.0000E-01   1.7647E-06
       1      2    440       5        7    1.0000E+00   9.8706E+01   1.0000E-04   5.0000E-01   1.7647E-06
       1      2    441       5        8    1.0000E+00   9.8706E+01   1.0000E-04   5.0000E-01   1.7647E-06
       1      2    442       5        9    1.0000E+00   9.8706E+01   1.0000E-04   5.0000E-01   1.7647E-06
       1      2    443       5       10    1.0000E+00   9.8706E+01   1.0000E-04   5.0000E-01   1.7647E-06
       1      2    444       5       11    1.0000E+00   9.8706E+01   1.0000E-04   5.0000E-01   1.7647E-06
       1      2    445       5       12    1.0000E+00   9.8706E+01   1.0000E-04   5.0000E-01   1.7647E-06
       1      2    446       5       13    1.0000E+00   9.8705E+01   1.0000E-04   5.0000E-01   1.7647E-06
       1      2    447       5       14    1.0000E+00   9.8705E+01   1.0000E-04   5.0000E-01   1.7647E-06
       1      2    448       5       15    1.0000E+00   9.8705E+01   1.0000E-04   5.0000E-01   1.7647E-06
       1      2    449       5       16    1.0000E+00   9.8705E+01   1.0000E-04   5.0000E-01   1.7647E-06
       1      2    450       5       17    1.0000E+00   9.8705E+01   1.0000E-04   5.0000E-01   1.7647E-06
       1      2    451       5       18    1.0000E+00   9.8705E+01   1.0000E-04   5.0000E-01   1.7647E-06
       1      2    452       5       19    1.0000E+00   9.8705E+01   1.0000E-04   5.0000E-01   1.7647E-06
       1      2    453       5       20    1.0000E+00   9.8705E+01   1.0000E-04   5.0000E-01   1.7647E-06
       1      2    454       5       21    1.0000E+00   9.8705E+01   1.0000E-04   5.0000E-01   1.7647E-06
       1      2    455       5       22    1.0000E+00   9.8705E+01   1.0000E-04   5.0000E-01   1.7647E-06
       1      2    456       5       23    1.0000E+00   9.8704E+01   1.0000E-04   5.0000E-01   1.7647E-06
       1      2    457       5       24    1.0000E+00   9.8704E+01   1.0000E-04   5.0000E-01   1.7647E-06
       1      2    458       5       25    1.0000E+00   9.8704E+01   1.0000E-04   5.0000E-01   1.7647E-06
       1      2    459       5       26    1.0000E+00   9.8704E+01   1.0000E-04   5.0000E-01   1.7647E-06
       1      2    460       5       27    1.0000E+00   9.8704E+01   1.0000E-04   5.0000E-01   1.7647E-06
       1      2    461       5       28    1.0000E+00   9.8704E+01   1.0000E-04   5.0000E-01   1.7647E-06
       1      2    462       5       29    1.0000E+00   9.8704E+01   1.0000E-04   5.0000E-01   1.7647E-06
       1      2    463       5       30    1.0000E+00   9.8704E+01   1.0000E-04   5.0000E-01   1.7647E-06
       1      2    464       5       31    1.0000E+00   9.8704E+01   1.0000E-04   5.0000E-01   1.7647E-06
       1      2    465       5       32    1.0000E+00   9.8704E+01   1.0000E-04   5.0000E-01   1.7647E-06
       1      2    466       5       33    1.0000E+00   9.8703E+01   1.0000E-04   5.0000E-01   1.7647E-06
       1      2    467       5       34    1.0000E+00   9.8703E+01   1.0000E-04   5.0000E-01   1.7647E-06
       1      2    468       5       35    1.0000E+00   9.8703E+01   1.0000E-04   5.0000E-01   1.7647E-06
       1      2    469       5       36    1.0000E+00   9.8703E+01   1.0000E-04   5.0000E-01   1.7647E-06
       1      2    470       5       37    1.0000E+00   9.8703E+01   1.0000E-04   5.0000E-01   1.7647E-06
       1      2    471       5       38    1.0000E+00   9.8703E+01   1.0000E-04   5.0000E-01   1.7647E-06
       1      2    472       5       39    1.0000E+00   9.8703E+01   1.0000E-04   5.0000E-01   1.7647E-06
       1      2    473       5       40    1.0000E+00   9.8703E+01   1.0000E-04   5.0000E-01   1.7647E-06
       1      2    474       5       41    1.0000E+00   9.8703E+01   1.0000E-04   5.0000E-01   1.7647E-06
       1      2    475       5       42    1.0000E+00   9.8703E+01   1.0000E-04   5.0000E-01   1.7647E-06
       1      2    476       5       43    1.0000E+00   9.8702E+01   1.0000E-04   5.0000E-01   1.7647E-06
       1      2    477       5       44    1.0000E+00   9.8702E+01   1.0000E-04   5.0000E-01   1.7647E-06
       1      2    478       5       45    1.0000E+00   9.8702E+01   1.0000E-04   5.0000E-01   1.7647E-06
       1      2    479       5       46    1.0000E+00   9.8702E+01   1.0000E-04   5.0000E-01   1.7647E-06
       1      2    480       5       47    1.0000E+00   9.8702E+01   1.0000E-04   5.0000E-01   1.7647E-06
       1      2    481       5       48    1.0000E+00   9.8702E+01   1.0000E-04   5.0000E-01   1.7647E-06
       1      2    482       5       49    1.0000E+00   9.8702E+01   1.0000E-04   5.0000E-01   1.7647E-06
       1      2    483       5       50    1.0000E+00   9.8702E+01   1.0000E-04   5.0000E-01   1.7647E-06
       1      2    484       5       51    1.0000E+00   9.8702E+01   1.0000E-04   5.0000E-01   1.7647E-06
       1      2    485       5       52    1.0000E+00   9.8702E+01   1.0000E-04   5.0000E-01   1.7647E-06
       1      2    486       5       53    1.0000E+00   9.8701E+01   1.0000E-04   5.0000E-01   1.7647E-06
       1      2    487       5       54    1.0000E+00   9.8701E+01   1.0000E-04   5.0000E-01   1.7647E-06
       1      2    488       5       55    1.0000E+00   9.8701E+01   1.0000E-04   5.0000E-01   1.7647E-06
       1      2    489       5       56    1.0000E+00   9.8701E+01   1.0000E-04   5.0000E-01   1.7647E-06
       1      2    490       5       57    1.0000E+00   9.8701E+01   1.0000E-04   5.0000E-01   1.7647E-06
       1      2    491       5       58    1.0000E+00   9.8701E+01   1.0000E-04   5.0000E-01   1.7647E-06
       1      2    492       5       59    1.0000E+00   9.8701E+01   1.0000E-04   5.0000E-01   1.7647E-06
       1      2    493       5       60    1.0000E+00   9.8701E+01   1.0000E-04   5.0000E-01   1.7647E-06
       1      2    494       5       61    1.0000E+00   9.8701E+01   1.0000E-04   5.0000E-01   1.7647E-06
       1      2    495       5       62    1.0000E+00   9.8701E+01   1.0000E-04   5.0000E-01   1.7647E-06
       1      2    496       5       63    1.0000E+00   9.8701E+01   1.0000E-04   5.0000E-01   1.7647E-06
       1      2    497       5       64    1.0000E+00   9.8700E+01   1.0000E-04   5.0000E-01   1.7647E-06
       1      2    498       5       65    1.0000E+00   9.8700E+01   1.0000E-04   5.0000E-01   1.7647E-06
       1      2    499       5       66    1.0000E+00   9.8700E+01   1.0000E-04   5.0000E-01   1.7647E-06
       1      2    500       5       67    1.0000E+00   9.8700E+01   1.0000E-04   5.0000E-01   1.7647E-06
       1      2    501       5       68    1.0000E+00   9.8700E+01   1.0000E-04   5.0000E-01   1.7647E-06
       1      2    502       5       69    1.0000E+00   9.8700E+01   1.0000E-04   5.0000E-01   1.7647E-06
       1      2    503       5       70    1.0000E+00   9.8700E+01   1.0000E-04   5.0000E-01   1.7647E-06
       1      2    504       5       71    1.0000E+00   9.8700E+01   1.0000E-04   5.0000E-01   1.7647E-06
       1      2    505       5       72    1.0000E+00   9.8700E+01   1.0000E-04   5.0000E-01   1.7647E-06
       1      2    506       5       73    1.0000E+00   9.8700E+01   1.0000E-04   5.0000E-01   1.7647E-06
       1      2    507       5       74    1.0000E+00   9.8699E+01   1.0000E-04   5.0000E-01   1.7647E-06
       1      2    508       5       75    1.0000E+00   9.8699E+01   1.0000E-04   5.0000E-01   1.7647E-06
       1      2    509       5       76    1.0000E+00   9.8699E+01   1.0000E-04   5.0000E-01   1.7647E-06
       1      2    510       5       77    1.0000E+00   9.8699E+01   1.0000E-04   5.0000E-01   1.7647E-06
       1      2    511       5       78    1.0000E+00   9.8699E+01   1.0000E-04   5.0000E-01   1.7647E-06
       1      2    512       5       79    1.0000E+00   9.8699E+01   1.0000E-04   5.0000E-01   1.7647E-06
       1      2    513       5       80    1.0000E+00   9.8699E+01   1.0000E-04   5.0000E-01   1.7647E-06
       1      2    514       5       81    1.0000E+00   9.8699E+01   1.0000E-04   5.0000E-01   1.7647E-06
       1      2    515       5       82    1.0000E+00   9.8699E+01   1.0000E-04   5.0000E-01   1.7647E-06
       1      2    516       5       83    1.0000E+00   9.8699E+01   1.0000E-04   5.0000E-01   1.7647E-06
       1      2    517       5       84    1.0000E+00   9.8698E+01   1.0000E-04   5.0000E-01   1.7647E-06
       1      2    518       5       85    1.0000E+00   9.8698E+01   1.0000E-04   5.0000E-01   1.7647E-06
       1      2    519       5       86    1.0000E+00   9.8698E+01   1.0000E-04   5.0000E-01   1.7647E-06
       1      2    520       5       87    1.0000E+00   9.8698E+01   1.0000E-04   5.0000E-01   1.7647E-06
       1      2    521       5       88    1.0000E+00   9.8698E+01   1.0000E-04   5.0000E-01   1.7647E-06
       1      2    522       5       89    1.0000E+00   9.8698E+01   1.0000E-04   5.0000E-01   1.7647E-06
       1      2    523       5       90    1.0000E+00   9.8698E+01   1.0000E-04   5.0000E-01   1.7647E-06
       1      2    524       5       91    1.0000E+00   9.8698E+01   1.0000E-04   5.0000E-01   1.7647E-06
       1      2    525       5       92    1.0000E+00   9.8698E+01   1.0000E-04   5.0000E-01   1.7647E-06
       1      2    526       5       93    1.0000E+00   9.8698E+01   1.0000E-04   5.0000E-01   1.7647E-06
       1      2    527       5       94    1.0000E+00   9.8697E+01   1.0000E-04   5.0000E-01   1.7647E-06
       1      2    528       5       95    1.0000E+00   9.8697E+01   1.0000E-04   5.0000E-01   1.7647E-06
       1      2    529       5       96    1.0000E+00   9.8697E+01   1.0000E-04   5.0000E-01   1.7647E-06
       1      2    530       5       97    1.0000E+00   9.8697E+01   1.0000E-04   5.0000E-01   1.7647E-06
       1      2    531       5       98    1.0000E+00   9.8697E+01   1.0000E-04   5.0000E-01   1.7647E-06
       1      2    532       5       99    1.0000E+00   9.8697E+01   1.0000E-04   5.0000E-01   1.7647E-06
       1      2    533       5      100    1.0000E+00   9.8697E+01   1.0000E-04   5.0000E-01   1.7647E-06
       1      2    534       5      101    1.0000E+00   9.8697E+01   1.0000E-04   5.0000E-01   1.7647E-06
       1      2    535       5      102    1.0000E+00   9.8697E+01   1.0000E-04   5.0000E-01   1.7647E-06
       1      2    536       5      103    1.0000E+00   9.8697E+01   1.0000E-04   5.0000E-01   1.7647E-06
       1      2    537       5      104    1.0000E+00   9.8696E+01   1.0000E-04   5.0000E-01   1.7647E-06
       1      2    538       5      105    1.0000E+00   9.8696E+01   1.0000E-04   5.0000E-01   1.7647E-06
       1      2    539       5      106    1.0000E+00   9.8696E+01   1.0000E-04   5.0000E-01   1.7647E-06
       1      2    540       5      107    1.0000E+00   9.8696E+01   1.0000E-04   5.0000E-01   1.7647E-06
       1      2    541       5      108    1.0000E+00   9.8696E+01   1.0000E-04   5.0000E-01   1.7647E-06
       1      2    542       5      109    1.0000E+00   9.8696E+01   1.0000E-04   5.0000E-01   1.7647E-06
       1      2    543       5      110    1.0000E+00   9.8696E+01   1.0000E-04   5.0000E-01   1.7647E-06
       1      2    544       5      111    1.0000E+00   9.8696E+01   1.0000E-04   5.0000E-01   1.7647E-06
       1      2    545       5      112    1.0000E+00   9.8696E+01   1.0000E-04   5.0000E-01   1.7647E-06
       1      2    546       5      113    1.0000E+00   9.8696E+01   1.0000E-04   5.0000E-01   1.7647E-06
       1      2    547       5      114    1.0000E+00   9.8695E+01   1.0000E-04   5.0000E-01   1.7647E-06
       1      2    548       5      115    1.0000E+00   9.8695E+01   1.0000E-04   5.0000E-01   1.7647E-06
       1      2    549       5      116    1.0000E+00   9.8695E+01   1.0000E-04   5.0000E-01   1.7647E-06
       1      2    550       5      117    1.0000E+00   9.8695E+01   1.0000E-04   5.0000E-01   1.7647E-06
       1      2    551       5      118    1.0000E+00   9.8695E+01   1.0000E-04   5.0000E-01   1.7647E-06
       1      2    552       5      119    1.0000E+00   9.8695E+01   1.0000E-04   5.0000E-01   1.7647E-06
       1      2    553       5      120    1.0000E+00   9.8695E+01   1.0000E-04   5.0000E-01   1.7647E-06
       1      2    554       5      121    1.0000E+00   9.8695E+01   1.0000E-04   5.0000E-01   1.7647E-06
       1      2    555       5      122    1.0000E+00   9.8695E+01   1.0000E-04   5.0000E-01   1.7647E-06
       1      2    556       5      123    1.0000E+00   9.8695E+01   1.0000E-04   5.0000E-01   1.7647E-06
       1      2    557       5      124    1.0000E+00   9.8694E+01   1.0000E-04   5.0000E-01   1.7647E-06
       1      2    558       5      125    1.0000E+00   9.8694E+01   1.0000E-04   5.0000E-01   1.7647E-06
       1      2    559       5      126    1.0000E+00   9.8694E+01   1.0000E-04   5.0000E-01   1.7647E-06
       1      2    560       5      127    1.0000E+00   9.8694E+01   1.0000E-04   5.0000E-01   1.7647E-06
       1      2    561       5      128    1.0000E+00   9.8694E+01   1.0000E-04   5.0000E-01   1.7647E-06
       1      2    562       5      129    1.0000E+00   9.8694E+01   1.0000E-04   5.0000E-01   1.7647E-06
       1      2    563       5      130    1.0000E+00   9.8694E+01   1.0000E-04   5.0000E-01   1.7647E-06
       1      2    564       5      131    1.0000E+00   9.8694E+01   1.0000E-04   5.0000E-01   1.7647E-06
       1      2    565       5      132    1.0000E+00   9.8694E+01   1.0000E-04   5.0000E-01   1.7647E-06
       1      2    566       5      133    1.0000E+00   9.8693E+01   1.0000E-04   5.0000E-01   1.7647E-06
       1      2    567       5      134    1.0000E+00   9.8693E+01   1.0000E-04   5.0000E-01   1.7647E-06
       1      2    568       5      135    1.0000E+00   9.8693E+01   1.0000E-04   5.0000E-01   1.7647E-06
       1      2    569       5      136    1.0000E+00   9.8693E+01   1.0000E-04   5.0000E-01   1.7647E-06
       1      2    570       5      137    1.0000E+00   9.8693E+01   1.0000E-04   5.0000E-01   1.7647E-06
       1      2    571       5      138    1.0000E+00   9.8693E+01   1.0000E-04   5.0000E-01   1.7647E-06
       1      2    572       5      139    1.0000E+00   9.8693E+01   1.0000E-04   5.0000E-01   1.7647E-06
       1      2    573       5      140    1.0000E+00   9.8693E+01   1.0000E-04   5.0000E-01   1.7647E-06
       1      2    574       5      141    1.0000E+00   9.8693E+01   1.0000E-04   5.0000E-01   1.7647E-06
       1      2    575       5      142    1.0000E+00   9.8693E+01   1.0000E-04   5.0000E-01   1.7647E-06
       1      2    576       5      143    1.0000E+00   9.8692E+01   1.0000E-04   5.0000E-01   1.7647E-06
       1      2    577       5      144    1.0000E+00   9.8692E+01   1.0000E-04   5.0000E-01   1.7647E-06
       1      2    578       5      145    1.0000E+00   9.8692E+01   1.0000E-04   5.0000E-01   1.7647E-06
       1      2    579       5      146    1.0000E+00   9.8692E+01   1.0000E-04   5.0000E-01   1.7647E-06
       1      2    580       5      147    1.0000E+00   9.8692E+01   1.0000E-04   5.0000E-01   1.7647E-06
       1      2    581       5      148    1.0000E+00   9.8692E+01   1.0000E-04   5.0000E-01   1.7647E-06
       1      2    582       5      149    1.0000E+00   9.8692E+01   1.0000E-04   5.0000E-01   1.7647E-06
       1      2    583       5      150    1.0000E+00   9.8692E+01   1.0000E-04   5.0000E-01   1.7647E-06
       1      2    584       5      151    1.0000E+00   9.8692E+01   1.0000E-04   5.0000E-01   1.7647E-06
       1      2    585       5      152    1.0000E+00   9.8692E+01   1.0000E-04   5.0000E-01   1.7647E-06
       1      2    586       5      153    1.0000E+00   9.8691E+01   1.0000E-04   5.0000E-01   1.7647E-06
       1      2    587       5      154    1.0000E+00   9.8691E+01   1.0000E-04   5.0000E-01   1.7647E-06
       1      2    588       5      155    1.0000E+00   9.8691E+01   1.0000E-04   5.0000E-01   1.7647E-06
       1      2    589       5      156    1.0000E+00   9.8691E+01   1.0000E-04   5.0000E-01   1.7647E-06
       1      2    590       5      157    1.0000E+00   9.8691E+01   1.0000E-04   5.0000E-01   1.7647E-06
       1      2    591       5      158    1.0000E+00   9.8691E+01   1.0000E-04   5.0000E-01   1.7647E-06
       1      2    592       5      159    1.0000E+00   9.8691E+01   1.0000E-04   5.0000E-01   1.7647E-06
       1      2    593       5      160    1.0000E+00   9.8691E+01   1.0000E-04   5.0000E-01   1.7647E-06
       1      2    594       5      161    1.0000E+00   9.8691E+01   1.0000E-04   5.0000E-01   1.7647E-06
       1      2    595       5      162    1.0000E+00   9.8691E+01   1.0000E-04   5.0000E-01   1.7647E-06
       1      2    596       5      163    1.0000E+00   9.8690E+01   1.0000E-04   5.0000E-01   1.7647E-06
       1      2    597       5      164    1.0000E+00   9.8690E+01   1.0000E-04   5.0000E-01   1.7647E-06
       1      2    598       5      165    1.0000E+00   9.8690E+01   1.0000E-04   5.0000E-01   1.7647E-06
       1      2    599       5      166    1.0000E+00   9.8690E+01   1.0000E-04   5.0000E-01   1.7647E-06
       1      2    600       5      167    1.0000E+00   9.8690E+01   1.0000E-04   5.0000E-01   1.7647E-06
       1      2    601       5      168    1.0000E+00   9.8690E+01   1.0000E-04   5.0000E-01   1.7647E-06
       1      2    602       5      169    1.0000E+00   9.8690E+01   1.0000E-04   5.0000E-01   1.7647E-06
       1      2    603       5      170    1.0000E+00   9.8690E+01   1.0000E-04   5.0000E-01   1.7647E-06
       1      2    604       5      171    1.0000E+00   9.8690E+01   1.0000E-04   5.0000E-01   1.7647E-06
       1      2    605       5      172    1.0000E+00   9.8690E+01   1.0000E-04   5.0000E-01   1.7647E-06
       1      2    606       5      173    1.0000E+00   9.8689E+01   1.0000E-04   5.0000E-01   1.7647E-06
       1      2    607       5      174    1.0000E+00   9.8689E+01   1.0000E-04   5.0000E-01   1.7647E-06
       1      2    608       5      175    1.0000E+00   9.8689E+01   1.0000E-04   5.0000E-01   1.7647E-06
       1      2    609       5      176    1.0000E+00   9.8689E+01   1.0000E-04   5.0000E-01   1.7647E-06
       1      2    610       5      177    1.0000E+00   9.8689E+01   1.0000E-04   5.0000E-01   1.7647E-06
       1      2    611       5      178    1.0000E+00   9.8689E+01   1.0000E-04   5.0000E-01   1.7647E-06
       1      2    612       5      179    1.0000E+00   9.8689E+01   1.0000E-04   5.0000E-01   1.7647E-06
       1      2    613       5      180    1.0000E+00   9.8689E+01   1.0000E-04   5.0000E-01   1.7647E-06
       1      2    614       5      181    1.0000E+00   9.8689E+01   1.0000E-04   5.0000E-01   1.7647E-06
       1      2    615       5      182    1.0000E+00   9.8689E+01   1.0000E-04   5.0000E-01   1.7647E-06
       1      2    616       5      183    1.0000E+00   9.8688E+01   1.0000E-04   5.0000E-01   1.7647E-06
       1      2    617       5      184    1.0000E+00   9.8688E+01   1.0000E-04   5.0000E-01   1.7647E-06
       1      2    618       5      185    1.0000E+00   9.8688E+01   1.0000E-04   5.0000E-01   1.7647E-06
       1      2    619       5      186    1.0000E+00   9.8688E+01   1.0000E-04   5.0000E-01   1.7647E-06
       1      2    620       6        1    1.0000E+00   9.8688E+01   1.0000E-04   5.0000E-01   1.0000E-10
       1      2    621       6        2    1.0000E+00   9.8688E+01   1.0000E-04   5.0000E-01   1.0000E-10
       1      2    622       6        3    1.0000E+00   9.8688E+01   1.0000E-04   5.0000E-01   1.0000E-10
       1      2    623       6        4    1.0000E+00   9.8688E+01   1.0000E-04   5.0000E-01   1.0000E-10
       1      2    624       6        5    1.0000E+00   9.8688E+01   1.0000E-04   5.0000E-01   1.0000E-10
       1      2    625       6        6    1.0000E+00   9.8688E+01   1.0000E-04   5.0000E-01   1.0000E-10
       1      2    626       6        7    1.0000E+00   9.8688E+01   1.0000E-04   5.0000E-01   1.0000E-10
       1      2    627       6        8    1.0000E+00   9.8687E+01   1.0000E-04   5.0000E-01   1.0000E-10
       1      2    628       6        9    1.0000E+00   9.8687E+01   1.0000E-04   5.0000E-01   1.0000E-10
       1      2    629       6       10    1.0000E+00   9.8687E+01   1.0000E-04   5.0000E-01   1.0000E-10
       1      2    630       6       11    1.0000E+00   9.8687E+01   1.0000E-04   5.0000E-01   1.0000E-10
       1      2    631       6       12    1.0000E+00   9.8687E+01   1.0000E-04   5.0000E-01   1.0000E-10
       1      2    632       6       13    1.0000E+00   9.8687E+01   1.0000E-04   5.0000E-01   1.0000E-10
       1      2    633       6       14    1.0000E+00   9.8687E+01   1.0000E-04   5.0000E-01   1.0000E-10
       1      2    634       6       15    1.0000E+00   9.8687E+01   1.0000E-04   5.0000E-01   1.0000E-10
       1      2    635       6       16    1.0000E+00   9.8687E+01   1.0000E-04   5.0000E-01   1.0000E-10
       1      2    636       6       17    1.0000E+00   9.8687E+01   1.0000E-04   5.0000E-01   1.0000E-10
       1      2    637       6       18    1.0000E+00   9.8686E+01   1.0000E-04   5.0000E-01   1.0000E-10
       1      2    638       6       19    1.0000E+00   9.8686E+01   1.0000E-04   5.0000E-01   1.0000E-10
       1      2    639       6       20    1.0000E+00   9.8686E+01   1.0000E-04   5.0000E-01   1.0000E-10
       1      2    640       6       21    1.0000E+00   9.8686E+01   1.0000E-04   5.0000E-01   1.0000E-10
       1      2    641       6       22    1.0000E+00   9.8686E+01   1.0000E-04   5.0000E-01   1.0000E-10
       1      2    642       6       23    1.0000E+00   9.8686E+01   1.0000E-04   5.0000E-01   1.0000E-10
       1      2    643       6       24    1.0000E+00   9.8686E+01   1.0000E-04   5.0000E-01   1.0000E-10
       1      2    644       6       25    1.0000E+00   9.8686E+01   1.0000E-04   5.0000E-01   1.0000E-10
       1      2    645       6       26    1.0000E+00   9.8686E+01   1.0000E-04   5.0000E-01   1.0000E-10
       1      2    646       6       27    1.0000E+00   9.8686E+01   1.0000E-04   5.0000E-01   1.0000E-10
       1      2    647       6       28    1.0000E+00   9.8685E+01   1.0000E-04   5.0000E-01   1.0000E-10
       1      2    648       6       29    1.0000E+00   9.8685E+01   1.0000E-04   5.0000E-01   1.0000E-10
       1      2    649       6       30    1.0000E+00   9.8685E+01   1.0000E-04   5.0000E-01   1.0000E-10
       1      2    650       6       31    1.0000E+00   9.8685E+01   1.0000E-04   5.0000E-01   1.0000E-10






   6 GAGING STATIONS WERE SPECIFIED.
     (Lakes are identified by a negative value of the Lake Number)
     RECORDS WILL BE WRITTEN TO SEPARATE OUTPUT FILES REPRESENTED BY FOLLOWING UNIT NUMBERS:

 Stream Gages:
  GAGE #   SEGMENT   REACH   UNIT   OUTTYPE
       1       1      38      61       1
       2       2      67      62       1
       3       3     176      63       1
       4       4     152      64       1
       5       5     186      65       1
       6       6      31      66       1






 ***Link-MT3DMS Package v7***
 OPENING LINK-MT3DMS OUTPUT FILE: CrnkNic.ftl                                                                                                                                                                                             
 ON UNIT NUMBER:    54
 FILE TYPE: FORMATTED  
 HEADER OPTION: EXTENDED
 ***Link-MT3DMS Package v7***

1
                            STRESS PERIOD NO.    1, LENGTH =   30600.00    
                            -----------------------------------------------

                              NUMBER OF TIME STEPS =     1

                               MULTIPLIER FOR DELT =     1.000

                            INITIAL TIME STEP SIZE =   30600.00    



 CLASSIFICATION & COUNT OF STREAM SEGMENTS BASED ON SOURCE OF INFLOW:

                HEADWATER     DIVERSION     RECEIVES TRIBUTARY FLOW
                ---------     ---------     -----------------------
                     1              0               5



                    INPUT DATA FOR EACH STREAM SEGMENT
 ---------------------------------------------------------------------------------------------

 SEGMENT    SEG.     INFLOW   OVERLAND   STREAM    STREAM   ICALC  OUTFLOW  DIVERSION PRIORITY
    NO.    LENGTH     RATE     RUNOFF      ET       PPT.    METH.  TO SEG.  FROM SEG.    NO.

      1  3.800E+01 1.250E-02 0.000E+00 0.000E+00 0.000E+00    1        2        0        0
      2  6.700E+01 0.000E+00 0.000E+00 0.000E+00 0.000E+00    1        3        0        0
      3  1.760E+02 0.000E+00 0.000E+00 0.000E+00 0.000E+00    1        4        0        0
      4  1.520E+02 0.000E+00 0.000E+00 0.000E+00 0.000E+00    1        5        0        0
      5  1.860E+02 0.000E+00 0.000E+00 0.000E+00 0.000E+00    1        6        0        0
      6  3.100E+01 0.000E+00 0.000E+00 0.000E+00 0.000E+00    1        0        0        0


         STREAMBED PROPERTIES AND STREAM DIMENSIONS

 SEGMENT     WIDTH OF STREAM     DEPTH OF STREAM    STREAM ROUGHNESS
    No.     UPPER     LOWER     UPPER     LOWER     CHANNEL      BANK

     1    1.500E+00 1.500E+00                      8.208E-02
     2    1.500E+00 1.500E+00                      1.438E-01
     3    1.500E+00 1.500E+00                      1.046E-01
     4    1.500E+00 1.500E+00                      1.270E-01
     5    1.500E+00 1.500E+00                      1.833E-01
     6    1.500E+00 1.500E+00                      1.833E-01




 SOLVING FOR HEAD 
                                                   Max.-Head-Change                         Max.-Flux-Residual
  Residual-Control   Outer-Iter.   Inner-Iter.     Column Row Layer    Maximum-Head-Change  Column Row Layer    Maximum-Flux-Residual          L2-NORM 
          0                 1           1             1    2     1      -0.3125357714E-03     650    2    1         0.1602171642E-03      0.2535536818E-03
          0                 2           1             1    2     1      -0.1236283254E-07       1    2    1        -0.1158861096E-07      0.1308092528E-07

    ------------------------------------------------
       NWT REQUIRED            2 OUTER ITERATIONS 
       AND A TOTAL OF          2 INNER ITERATIONS.
    ------------------------------------------------

 OUTPUT CONTROL FOR STRESS PERIOD    1   TIME STEP    1
    SAVE HEAD FOR ALL LAYERS

 SAVING SATURATED THICKNESS AND FLOW TERMS ON UNIT   54 FOR MT3DMS
 BY THE LINK-MT3DMS PACKAGE V7 AT TIME STEP    1, STRESS PERIOD    1


 HEAD WILL BE SAVED ON UNIT   51 AT END OF TIME STEP    1, STRESS PERIOD    1
1
  VOLUMETRIC BUDGET FOR ENTIRE MODEL AT END OF TIME STEP    1, STRESS PERIOD   1
  ------------------------------------------------------------------------------

     CUMULATIVE VOLUMES      L**3       RATES FOR THIS TIME STEP      L**3/T
     ------------------                 ------------------------

           IN:                                      IN:
           ---                                      ---
             STORAGE =       1.3946E-03               STORAGE =       4.5575E-08
       CONSTANT HEAD =          50.6921         CONSTANT HEAD =       1.6566E-03
      STREAM LEAKAGE =           0.0000        STREAM LEAKAGE =           0.0000

            TOTAL IN =          50.6934              TOTAL IN =       1.6566E-03

          OUT:                                     OUT:
          ----                                     ----
             STORAGE =       1.9573E-08               STORAGE =       6.3965E-13
       CONSTANT HEAD =           4.7916         CONSTANT HEAD =       1.5659E-04
      STREAM LEAKAGE =          45.9019        STREAM LEAKAGE =       1.5001E-03

           TOTAL OUT =          50.6934             TOTAL OUT =       1.6566E-03

            IN - OUT =       3.8147E-06              IN - OUT =           0.0000

 PERCENT DISCREPANCY =           0.00     PERCENT DISCREPANCY =           0.00






         TIME SUMMARY AT END OF TIME STEP    1 IN STRESS PERIOD    1
                    SECONDS     MINUTES      HOURS       DAYS        YEARS
                    -----------------------------------------------------------
   TIME STEP LENGTH  30600.      510.00      8.5000     0.35417     9.69655E-04
 STRESS PERIOD TIME  30600.      510.00      8.5000     0.35417     9.69655E-04
         TOTAL TIME  30600.      510.00      8.5000     0.35417     9.69655E-04
1
1
                            STRESS PERIOD NO.    2, LENGTH =   10800.00    
                            -----------------------------------------------

                              NUMBER OF TIME STEPS =     1

                               MULTIPLIER FOR DELT =     1.000

                            INITIAL TIME STEP SIZE =   10800.00    



 CLASSIFICATION & COUNT OF STREAM SEGMENTS BASED ON SOURCE OF INFLOW:

                HEADWATER     DIVERSION     RECEIVES TRIBUTARY FLOW
                ---------     ---------     -----------------------
                     1              0               5



                    INPUT DATA FOR EACH STREAM SEGMENT
 ---------------------------------------------------------------------------------------------

 SEGMENT    SEG.     INFLOW   OVERLAND   STREAM    STREAM   ICALC  OUTFLOW  DIVERSION PRIORITY
    NO.    LENGTH     RATE     RUNOFF      ET       PPT.    METH.  TO SEG.  FROM SEG.    NO.

      1  3.800E+01 1.250E-02 0.000E+00 0.000E+00 0.000E+00    1        2        0        0
      2  6.700E+01 0.000E+00 0.000E+00 0.000E+00 0.000E+00    1        3        0        0
      3  1.760E+02 0.000E+00 0.000E+00 0.000E+00 0.000E+00    1        4        0        0
      4  1.520E+02 0.000E+00 0.000E+00 0.000E+00 0.000E+00    1        5        0        0
      5  1.860E+02 0.000E+00 0.000E+00 0.000E+00 0.000E+00    1        6        0        0
      6  3.100E+01 0.000E+00 0.000E+00 0.000E+00 0.000E+00    1        0        0        0


         STREAMBED PROPERTIES AND STREAM DIMENSIONS

 SEGMENT     WIDTH OF STREAM     DEPTH OF STREAM    STREAM ROUGHNESS
    No.     UPPER     LOWER     UPPER     LOWER     CHANNEL      BANK

     1    1.500E+00 1.500E+00                      8.208E-02
     2    1.500E+00 1.500E+00                      1.438E-01
     3    1.500E+00 1.500E+00                      1.046E-01
     4    1.500E+00 1.500E+00                      1.270E-01
     5    1.500E+00 1.500E+00                      1.833E-01
     6    1.500E+00 1.500E+00                      1.833E-01




 SOLVING FOR HEAD 
          0                 1           1             1    2     1      -0.5824067273E-07       1    2    1        -0.1021416551E-07      0.1600024370E-07

    ------------------------------------------------
       NWT REQUIRED            1 OUTER ITERATIONS 
       AND A TOTAL OF          1 INNER ITERATIONS.
    ------------------------------------------------

 NO OUTPUT CONTROL FOR STRESS PERIOD    2   TIME STEP    1

 SAVING SATURATED THICKNESS AND FLOW TERMS ON UNIT   54 FOR MT3DMS
 BY THE LINK-MT3DMS PACKAGE V7 AT TIME STEP    1, STRESS PERIOD    2

1
  VOLUMETRIC BUDGET FOR ENTIRE MODEL AT END OF TIME STEP    1, STRESS PERIOD   2
  ------------------------------------------------------------------------------

     CUMULATIVE VOLUMES      L**3       RATES FOR THIS TIME STEP      L**3/T
     ------------------                 ------------------------

           IN:                                      IN:
           ---                                      ---
             STORAGE =       1.3950E-03               STORAGE =       3.9495E-11
       CONSTANT HEAD =          68.5839         CONSTANT HEAD =       1.6566E-03
      STREAM LEAKAGE =           0.0000        STREAM LEAKAGE =           0.0000

            TOTAL IN =          68.5853              TOTAL IN =       1.6566E-03

          OUT:                                     OUT:
          ----                                     ----
             STORAGE =       2.7794E-08               STORAGE =       7.6120E-13
       CONSTANT HEAD =           6.4827         CONSTANT HEAD =       1.5659E-04
      STREAM LEAKAGE =          62.1025        STREAM LEAKAGE =       1.5001E-03

           TOTAL OUT =          68.5852             TOTAL OUT =       1.6566E-03

            IN - OUT =       7.6294E-06              IN - OUT =           0.0000

 PERCENT DISCREPANCY =           0.00     PERCENT DISCREPANCY =           0.00






         TIME SUMMARY AT END OF TIME STEP    1 IN STRESS PERIOD    2
                    SECONDS     MINUTES      HOURS       DAYS        YEARS
                    -----------------------------------------------------------
   TIME STEP LENGTH  10800.      180.00      3.0000     0.12500     3.42231E-04
 STRESS PERIOD TIME  10800.      180.00      3.0000     0.12500     3.42231E-04
         TOTAL TIME  41400.      690.00      11.500     0.47917     1.31189E-03
1
1
                            STRESS PERIOD NO.    3, LENGTH =   45000.00    
                            -----------------------------------------------

                              NUMBER OF TIME STEPS =     1

                               MULTIPLIER FOR DELT =     1.000

                            INITIAL TIME STEP SIZE =   45000.00    



 CLASSIFICATION & COUNT OF STREAM SEGMENTS BASED ON SOURCE OF INFLOW:

                HEADWATER     DIVERSION     RECEIVES TRIBUTARY FLOW
                ---------     ---------     -----------------------
                     1              0               5



                    INPUT DATA FOR EACH STREAM SEGMENT
 ---------------------------------------------------------------------------------------------

 SEGMENT    SEG.     INFLOW   OVERLAND   STREAM    STREAM   ICALC  OUTFLOW  DIVERSION PRIORITY
    NO.    LENGTH     RATE     RUNOFF      ET       PPT.    METH.  TO SEG.  FROM SEG.    NO.

      1  3.800E+01 1.250E-02 0.000E+00 0.000E+00 0.000E+00    1        2        0        0
      2  6.700E+01 0.000E+00 0.000E+00 0.000E+00 0.000E+00    1        3        0        0
      3  1.760E+02 0.000E+00 0.000E+00 0.000E+00 0.000E+00    1        4        0        0
      4  1.520E+02 0.000E+00 0.000E+00 0.000E+00 0.000E+00    1        5        0        0
      5  1.860E+02 0.000E+00 0.000E+00 0.000E+00 0.000E+00    1        6        0        0
      6  3.100E+01 0.000E+00 0.000E+00 0.000E+00 0.000E+00    1        0        0        0


         STREAMBED PROPERTIES AND STREAM DIMENSIONS

 SEGMENT     WIDTH OF STREAM     DEPTH OF STREAM    STREAM ROUGHNESS
    No.     UPPER     LOWER     UPPER     LOWER     CHANNEL      BANK

     1    1.500E+00 1.500E+00                      8.208E-02
     2    1.500E+00 1.500E+00                      1.438E-01
     3    1.500E+00 1.500E+00                      1.046E-01
     4    1.500E+00 1.500E+00                      1.270E-01
     5    1.500E+00 1.500E+00                      1.833E-01
     6    1.500E+00 1.500E+00                      1.833E-01




 SOLVING FOR HEAD 
          0                 1           1             1    2     1      -0.3966249551E-10       1    2    1        -0.5371703082E-11      0.1161973762E-10

    ------------------------------------------------
       NWT REQUIRED            1 OUTER ITERATIONS 
       AND A TOTAL OF          1 INNER ITERATIONS.
    ------------------------------------------------

 NO OUTPUT CONTROL FOR STRESS PERIOD    3   TIME STEP    1

 SAVING SATURATED THICKNESS AND FLOW TERMS ON UNIT   54 FOR MT3DMS
 BY THE LINK-MT3DMS PACKAGE V7 AT TIME STEP    1, STRESS PERIOD    3

1
  VOLUMETRIC BUDGET FOR ENTIRE MODEL AT END OF TIME STEP    1, STRESS PERIOD   3
  ------------------------------------------------------------------------------

     CUMULATIVE VOLUMES      L**3       RATES FOR THIS TIME STEP      L**3/T
     ------------------                 ------------------------

           IN:                                      IN:
           ---                                      ---
             STORAGE =       1.3950E-03               STORAGE =       2.1046E-13
       CONSTANT HEAD =         143.1330         CONSTANT HEAD =       1.6566E-03
      STREAM LEAKAGE =           0.0000        STREAM LEAKAGE =           0.0000

            TOTAL IN =         143.1344              TOTAL IN =       1.6566E-03

          OUT:                                     OUT:
          ----                                     ----
             STORAGE =       3.6155E-08               STORAGE =       1.8579E-13
       CONSTANT HEAD =          13.5292         CONSTANT HEAD =       1.5659E-04
      STREAM LEAKAGE =         129.6053        STREAM LEAKAGE =       1.5001E-03

           TOTAL OUT =         143.1344             TOTAL OUT =       1.6566E-03

            IN - OUT =      -1.5259E-05              IN - OUT =           0.0000

 PERCENT DISCREPANCY =          -0.00     PERCENT DISCREPANCY =           0.00






         TIME SUMMARY AT END OF TIME STEP    1 IN STRESS PERIOD    3
                    SECONDS     MINUTES      HOURS       DAYS        YEARS
                    -----------------------------------------------------------
   TIME STEP LENGTH  45000.      750.00      12.500     0.52083     1.42596E-03
 STRESS PERIOD TIME  45000.      750.00      12.500     0.52083     1.42596E-03
         TOTAL TIME  86400.      1440.0      24.000      1.0000     2.73785E-03
1

 Run end date and time (yyyy/mm/dd hh:mm:ss): 2018/09/05 10:11:20
 Elapsed run time:  0.075 Seconds

